# generated using pymatgen
data_ID_0
_symmetry_space_group_name_H-M   P4/mmm
_cell_length_a   4.74020036
_cell_length_b   4.74020036
_cell_length_c   4.66732671
_cell_angle_alpha   90.00000000
_cell_angle_beta   90.00000000
_cell_angle_gamma   90.00000000
_symmetry_Int_Tables_number   123
_chemical_formula_structural   CuAu
_cell_volume   104.87249489
_cell_formula_units_Z   2
loop_
 _symmetry_equiv_pos_site_id
 _symmetry_equiv_pos_as_xyz
  1  'x, y, z'
  2  '-x, -y, -z'
  3  '-y, x, z'
  4  'y, -x, -z'
  5  '-x, -y, z'
  6  'x, y, -z'
  7  'y, -x, z'
  8  '-y, x, -z'
  9  'x, -y, -z'
  10  '-x, y, z'
  11  '-y, -x, -z'
  12  'y, x, z'
  13  '-x, y, -z'
  14  'x, -y, z'
  15  'y, x, -z'
  16  '-y, -x, z'
loop_
 _atom_site_type_symbol
 _atom_site_label
 _atom_site_symmetry_multiplicity
 _atom_site_fract_x
 _atom_site_fract_y
 _atom_site_fract_z
 _atom_site_occupancy
  Cu  Cu0  1  0.00000000  0.00000000  0.00000000  1
  Cu  Cu1  1  0.00000000  0.00000000  0.50000000  1
  Au  Au2  2  0.00000000  0.50000000  0.50000000  1
# generated using pymatgen
data_ID_1
_symmetry_space_group_name_H-M   P1
_cell_length_a   4.68729180
_cell_length_b   7.19038205
_cell_length_c   7.22388089
_cell_angle_alpha   73.15053754
_cell_angle_beta   77.32389028
_cell_angle_gamma   89.49675499
_symmetry_Int_Tables_number   1
_chemical_formula_structural   CuAu
_cell_volume   226.94552980
_cell_formula_units_Z   8
loop_
 _symmetry_equiv_pos_site_id
 _symmetry_equiv_pos_as_xyz
  1  'x, y, z'
loop_
 _atom_site_type_symbol
 _atom_site_label
 _atom_site_symmetry_multiplicity
 _atom_site_fract_x
 _atom_site_fract_y
 _atom_site_fract_z
 _atom_site_occupancy
  Cu  Cu0  1  0.02407093  0.47165080  0.00865779  1
  Cu  Cu1  1  0.09972443  0.59432527  0.31058332  1
  Cu  Cu2  1  0.28697910  0.97683451  0.24379294  1
  Cu  Cu3  1  0.64472824  0.73142778  0.12537862  1
  Cu  Cu4  1  0.77307649  0.98181074  0.75181842  1
  Cu  Cu5  1  0.84205589  0.10870042  0.05473261  1
  Cu  Cu6  1  0.91366629  0.22629460  0.37039868  1
  Cu  Cu7  1  0.96768397  0.34623356  0.68863932  1
  Au  Au8  1  0.15481570  0.71875103  0.61947307  1
  Au  Au9  1  0.19103699  0.84456584  0.95443397  1
  Au  Au10  1  0.33155825  0.09697422  0.56433344  1
  Au  Au11  1  0.39897146  0.22446182  0.87842669  1
  Au  Au12  1  0.47002406  0.34829897  0.18862892  1
  Au  Au13  1  0.55276577  0.47664883  0.49208541  1
  Au  Au14  1  0.59777404  0.60752781  0.81870803  1
  Au  Au15  1  0.73666141  0.86548745  0.41413484  1
# generated using pymatgen
data_ID_2
_symmetry_space_group_name_H-M   P3
_cell_length_a   7.22693618
_cell_length_b   7.22693618
_cell_length_c   5.23147902
_cell_angle_alpha   90.00000000
_cell_angle_beta   90.00000000
_cell_angle_gamma   120.00000000
_symmetry_Int_Tables_number   143
_chemical_formula_structural   CuAu
_cell_volume   236.62659763
_cell_formula_units_Z   8
loop_
 _symmetry_equiv_pos_site_id
 _symmetry_equiv_pos_as_xyz
  1  'x, y, z'
  2  '-y, x-y, z'
  3  '-x+y, -x, z'
loop_
 _atom_site_type_symbol
 _atom_site_label
 _atom_site_symmetry_multiplicity
 _atom_site_fract_x
 _atom_site_fract_y
 _atom_site_fract_z
 _atom_site_occupancy
  Cu  Cu0  3  0.00482056  0.37700775  0.74009269  1
  Cu  Cu1  3  0.04928480  0.66997542  0.04494026  1
  Cu  Cu2  1  0.66666667  0.33333333  0.48241690  1
  Cu  Cu3  1  0.66666667  0.33333333  0.96603731  1
  Au  Au4  3  0.00177738  0.72124532  0.55716003  1
  Au  Au5  3  0.33845993  0.03328604  0.23165600  1
  Au  Au6  1  0.00000000  0.00000000  0.92541787  1
  Au  Au7  1  0.33333333  0.66666667  0.40805547  1
# generated using pymatgen
data_ID_3
_symmetry_space_group_name_H-M   P6/mmm
_cell_length_a   7.61251554
_cell_length_b   7.61251554
_cell_length_c   4.63725294
_cell_angle_alpha   90.00000000
_cell_angle_beta   90.00000000
_cell_angle_gamma   120.00000000
_symmetry_Int_Tables_number   191
_chemical_formula_structural   CuAu
_cell_volume   232.72755151
_cell_formula_units_Z   8
loop_
 _symmetry_equiv_pos_site_id
 _symmetry_equiv_pos_as_xyz
  1  'x, y, z'
  2  '-x, -y, -z'
  3  'x-y, x, z'
  4  '-x+y, -x, -z'
  5  '-y, x-y, z'
  6  'y, -x+y, -z'
  7  '-x, -y, z'
  8  'x, y, -z'
  9  '-x+y, -x, z'
  10  'x-y, x, -z'
  11  'y, -x+y, z'
  12  '-y, x-y, -z'
  13  '-y, -x, -z'
  14  'y, x, z'
  15  '-x, -x+y, -z'
  16  'x, x-y, z'
  17  '-x+y, y, -z'
  18  'x-y, -y, z'
  19  'y, x, -z'
  20  '-y, -x, z'
  21  'x, x-y, -z'
  22  '-x, -x+y, z'
  23  'x-y, -y, -z'
  24  '-x+y, y, z'
loop_
 _atom_site_type_symbol
 _atom_site_label
 _atom_site_symmetry_multiplicity
 _atom_site_fract_x
 _atom_site_fract_y
 _atom_site_fract_z
 _atom_site_occupancy
  Cu  Cu0  6  0.00000000  0.32161815  0.00000000  1
  Cu  Cu1  2  0.00000000  0.00000000  0.25030485  1
  Au  Au2  6  0.20635356  0.79364644  0.50000000  1
  Au  Au3  2  0.33333333  0.66666667  0.00000000  1
# generated using pymatgen
data_ID_4
_symmetry_space_group_name_H-M   Pnn2
_cell_length_a   4.98721289
_cell_length_b   6.72855217
_cell_length_c   6.99845392
_cell_angle_alpha   90.00000000
_cell_angle_beta   90.00000000
_cell_angle_gamma   90.00000000
_symmetry_Int_Tables_number   34
_chemical_formula_structural   CuAu
_cell_volume   234.84517304
_cell_formula_units_Z   8
loop_
 _symmetry_equiv_pos_site_id
 _symmetry_equiv_pos_as_xyz
  1  'x, y, z'
  2  '-x, -y, z'
  3  '-x+1/2, y+1/2, z+1/2'
  4  'x+1/2, -y+1/2, z+1/2'
loop_
 _atom_site_type_symbol
 _atom_site_label
 _atom_site_symmetry_multiplicity
 _atom_site_fract_x
 _atom_site_fract_y
 _atom_site_fract_z
 _atom_site_occupancy
  Cu  Cu0  4  0.19948813  0.36035973  0.31605787  1
  Cu  Cu1  4  0.20195100  0.24424304  0.94873782  1
  Au  Au2  4  0.23020843  0.12743480  0.58644809  1
  Au  Au3  2  0.00000000  0.00000000  0.23561537  1
  Au  Au4  2  0.00000000  0.50000000  0.65953853  1
# generated using pymatgen
data_ID_5
_symmetry_space_group_name_H-M   P4_2/mmc
_cell_length_a   2.66182911
_cell_length_b   2.66182911
_cell_length_c   9.07125074
_cell_angle_alpha   90.00000000
_cell_angle_beta   90.00000000
_cell_angle_gamma   90.00000000
_symmetry_Int_Tables_number   131
_chemical_formula_structural   CuAu
_cell_volume   64.27284299
_cell_formula_units_Z   2
loop_
 _symmetry_equiv_pos_site_id
 _symmetry_equiv_pos_as_xyz
  1  'x, y, z'
  2  '-x, -y, -z'
  3  '-y, x, z+1/2'
  4  'y, -x, -z+1/2'
  5  '-x, -y, z'
  6  'x, y, -z'
  7  'y, -x, z+1/2'
  8  '-y, x, -z+1/2'
  9  'x, -y, -z'
  10  '-x, y, z'
  11  '-y, -x, -z+1/2'
  12  'y, x, z+1/2'
  13  '-x, y, -z'
  14  'x, -y, z'
  15  'y, x, -z+1/2'
  16  '-y, -x, z+1/2'
loop_
 _atom_site_type_symbol
 _atom_site_label
 _atom_site_symmetry_multiplicity
 _atom_site_fract_x
 _atom_site_fract_y
 _atom_site_fract_z
 _atom_site_occupancy
  Cu  Cu0  2  0.50000000  0.50000000  0.25000000  1
  Au  Au1  2  0.00000000  0.50000000  0.00000000  1
# generated using pymatgen
data_ID_6
_symmetry_space_group_name_H-M   I-43m
_cell_length_a   11.21936011
_cell_length_b   11.21936011
_cell_length_c   11.21936011
_cell_angle_alpha   90.00000000
_cell_angle_beta   90.00000000
_cell_angle_gamma   90.00000000
_symmetry_Int_Tables_number   217
_chemical_formula_structural   CuAu
_cell_volume   1412.22619841
_cell_formula_units_Z   16
loop_
 _symmetry_equiv_pos_site_id
 _symmetry_equiv_pos_as_xyz
  1  'x, y, z'
  2  'y, -x, -z'
  3  '-x, -y, z'
  4  '-y, x, -z'
  5  'x, -y, -z'
  6  'y, x, z'
  7  '-x, y, -z'
  8  '-y, -x, z'
  9  'z, x, y'
  10  '-z, y, -x'
  11  'z, -x, -y'
  12  '-z, -y, x'
  13  '-z, x, -y'
  14  'z, y, x'
  15  '-z, -x, y'
  16  'z, -y, -x'
  17  'y, z, x'
  18  '-x, -z, y'
  19  '-y, z, -x'
  20  'x, -z, -y'
  21  '-y, -z, x'
  22  'x, z, y'
  23  'y, -z, -x'
  24  '-x, z, -y'
  25  'x+1/2, y+1/2, z+1/2'
  26  'y+1/2, -x+1/2, -z+1/2'
  27  '-x+1/2, -y+1/2, z+1/2'
  28  '-y+1/2, x+1/2, -z+1/2'
  29  'x+1/2, -y+1/2, -z+1/2'
  30  'y+1/2, x+1/2, z+1/2'
  31  '-x+1/2, y+1/2, -z+1/2'
  32  '-y+1/2, -x+1/2, z+1/2'
  33  'z+1/2, x+1/2, y+1/2'
  34  '-z+1/2, y+1/2, -x+1/2'
  35  'z+1/2, -x+1/2, -y+1/2'
  36  '-z+1/2, -y+1/2, x+1/2'
  37  '-z+1/2, x+1/2, -y+1/2'
  38  'z+1/2, y+1/2, x+1/2'
  39  '-z+1/2, -x+1/2, y+1/2'
  40  'z+1/2, -y+1/2, -x+1/2'
  41  'y+1/2, z+1/2, x+1/2'
  42  '-x+1/2, -z+1/2, y+1/2'
  43  '-y+1/2, z+1/2, -x+1/2'
  44  'x+1/2, -z+1/2, -y+1/2'
  45  '-y+1/2, -z+1/2, x+1/2'
  46  'x+1/2, z+1/2, y+1/2'
  47  'y+1/2, -z+1/2, -x+1/2'
  48  '-x+1/2, z+1/2, -y+1/2'
loop_
 _atom_site_type_symbol
 _atom_site_label
 _atom_site_symmetry_multiplicity
 _atom_site_fract_x
 _atom_site_fract_y
 _atom_site_fract_z
 _atom_site_occupancy
  Cu  Cu0  8  0.12573244  0.87426756  0.87426756  1
  Cu  Cu1  8  0.24817966  0.75182034  0.75182034  1
  Au  Au2  8  0.12977080  0.12977080  0.87022920  1
  Au  Au3  6  0.00000000  0.00000000  0.50000000  1
  Au  Au4  2  0.00000000  0.00000000  0.00000000  1
# generated using pymatgen
data_ID_7
_symmetry_space_group_name_H-M   Cmm2
_cell_length_a   7.85476735
_cell_length_b   9.74266644
_cell_length_c   8.80243003
_cell_angle_alpha   90.00000000
_cell_angle_beta   90.00000000
_cell_angle_gamma   90.00000000
_symmetry_Int_Tables_number   35
_chemical_formula_structural   CuAu
_cell_volume   673.61808969
_cell_formula_units_Z   16
loop_
 _symmetry_equiv_pos_site_id
 _symmetry_equiv_pos_as_xyz
  1  'x, y, z'
  2  '-x, -y, z'
  3  '-x, y, z'
  4  'x, -y, z'
  5  'x+1/2, y+1/2, z'
  6  '-x+1/2, -y+1/2, z'
  7  '-x+1/2, y+1/2, z'
  8  'x+1/2, -y+1/2, z'
loop_
 _atom_site_type_symbol
 _atom_site_label
 _atom_site_symmetry_multiplicity
 _atom_site_fract_x
 _atom_site_fract_y
 _atom_site_fract_z
 _atom_site_occupancy
  Cu  Cu0  8  0.15823751  0.36819153  0.01619728  1
  Cu  Cu1  4  0.00000000  0.37146626  0.28232150  1
  Cu  Cu2  4  0.25000000  0.25000000  0.50699483  1
  Au  Au3  8  0.16626273  0.13371651  0.25540709  1
  Au  Au4  4  0.25000000  0.25000000  0.78418631  1
  Au  Au5  2  0.00000000  0.00000000  0.01912344  1
  Au  Au6  2  0.00000000  0.00000000  0.48662379  1
# generated using pymatgen
data_ID_8
_symmetry_space_group_name_H-M   Pmma
_cell_length_a   5.49636932
_cell_length_b   2.79597311
_cell_length_c   7.43006793
_cell_angle_alpha   90.00000000
_cell_angle_beta   90.00000000
_cell_angle_gamma   90.00000000
_symmetry_Int_Tables_number   51
_chemical_formula_structural   CuAu
_cell_volume   114.18306102
_cell_formula_units_Z   4
loop_
 _symmetry_equiv_pos_site_id
 _symmetry_equiv_pos_as_xyz
  1  'x, y, z'
  2  '-x, -y, -z'
  3  '-x+1/2, -y, z'
  4  'x+1/2, y, -z'
  5  'x+1/2, -y, -z'
  6  '-x+1/2, y, z'
  7  '-x, y, -z'
  8  'x, -y, z'
loop_
 _atom_site_type_symbol
 _atom_site_label
 _atom_site_symmetry_multiplicity
 _atom_site_fract_x
 _atom_site_fract_y
 _atom_site_fract_z
 _atom_site_occupancy
  Cu  Cu0  2  0.00000000  0.00000000  0.00000000  1
  Cu  Cu1  2  0.25000000  0.50000000  0.76636625  1
  Au  Au2  2  0.00000000  0.00000000  0.50000000  1
  Au  Au3  2  0.25000000  0.50000000  0.23021936  1
# generated using pymatgen
data_ID_9
_symmetry_space_group_name_H-M   I4/mcm
_cell_length_a   9.87531588
_cell_length_b   9.87531588
_cell_length_c   4.76753494
_cell_angle_alpha   90.00000000
_cell_angle_beta   90.00000000
_cell_angle_gamma   90.00000000
_symmetry_Int_Tables_number   140
_chemical_formula_structural   CuAu
_cell_volume   464.93889239
_cell_formula_units_Z   8
loop_
 _symmetry_equiv_pos_site_id
 _symmetry_equiv_pos_as_xyz
  1  'x, y, z'
  2  '-x, -y, -z'
  3  '-y, x, z'
  4  'y, -x, -z'
  5  '-x, -y, z'
  6  'x, y, -z'
  7  'y, -x, z'
  8  '-y, x, -z'
  9  'x, -y, -z+1/2'
  10  '-x, y, z+1/2'
  11  '-y, -x, -z+1/2'
  12  'y, x, z+1/2'
  13  '-x, y, -z+1/2'
  14  'x, -y, z+1/2'
  15  'y, x, -z+1/2'
  16  '-y, -x, z+1/2'
  17  'x+1/2, y+1/2, z+1/2'
  18  '-x+1/2, -y+1/2, -z+1/2'
  19  '-y+1/2, x+1/2, z+1/2'
  20  'y+1/2, -x+1/2, -z+1/2'
  21  '-x+1/2, -y+1/2, z+1/2'
  22  'x+1/2, y+1/2, -z+1/2'
  23  'y+1/2, -x+1/2, z+1/2'
  24  '-y+1/2, x+1/2, -z+1/2'
  25  'x+1/2, -y+1/2, -z'
  26  '-x+1/2, y+1/2, z'
  27  '-y+1/2, -x+1/2, -z'
  28  'y+1/2, x+1/2, z'
  29  '-x+1/2, y+1/2, -z'
  30  'x+1/2, -y+1/2, z'
  31  'y+1/2, x+1/2, -z'
  32  '-y+1/2, -x+1/2, z'
loop_
 _atom_site_type_symbol
 _atom_site_label
 _atom_site_symmetry_multiplicity
 _atom_site_fract_x
 _atom_site_fract_y
 _atom_site_fract_z
 _atom_site_occupancy
  Cu  Cu0  8  0.25000000  0.25000000  0.25000000  1
  Au  Au1  8  0.08940154  0.41059846  0.50000000  1
# generated using pymatgen
data_ID_10
_symmetry_space_group_name_H-M   Im-3m
_cell_length_a   11.09343368
_cell_length_b   11.09343368
_cell_length_c   11.09343368
_cell_angle_alpha   90.00000000
_cell_angle_beta   90.00000000
_cell_angle_gamma   90.00000000
_symmetry_Int_Tables_number   229
_chemical_formula_structural   CuAu
_cell_volume   1365.20532641
_cell_formula_units_Z   16
loop_
 _symmetry_equiv_pos_site_id
 _symmetry_equiv_pos_as_xyz
  1  'x, y, z'
  2  '-x, -y, -z'
  3  '-y, x, z'
  4  'y, -x, -z'
  5  '-x, -y, z'
  6  'x, y, -z'
  7  'y, -x, z'
  8  '-y, x, -z'
  9  'x, -y, -z'
  10  '-x, y, z'
  11  '-y, -x, -z'
  12  'y, x, z'
  13  '-x, y, -z'
  14  'x, -y, z'
  15  'y, x, -z'
  16  '-y, -x, z'
  17  'z, x, y'
  18  '-z, -x, -y'
  19  'z, -y, x'
  20  '-z, y, -x'
  21  'z, -x, -y'
  22  '-z, x, y'
  23  'z, y, -x'
  24  '-z, -y, x'
  25  '-z, x, -y'
  26  'z, -x, y'
  27  '-z, -y, -x'
  28  'z, y, x'
  29  '-z, -x, y'
  30  'z, x, -y'
  31  '-z, y, x'
  32  'z, -y, -x'
  33  'y, z, x'
  34  '-y, -z, -x'
  35  'x, z, -y'
  36  '-x, -z, y'
  37  '-y, z, -x'
  38  'y, -z, x'
  39  '-x, z, y'
  40  'x, -z, -y'
  41  '-y, -z, x'
  42  'y, z, -x'
  43  '-x, -z, -y'
  44  'x, z, y'
  45  'y, -z, -x'
  46  '-y, z, x'
  47  'x, -z, y'
  48  '-x, z, -y'
  49  'x+1/2, y+1/2, z+1/2'
  50  '-x+1/2, -y+1/2, -z+1/2'
  51  '-y+1/2, x+1/2, z+1/2'
  52  'y+1/2, -x+1/2, -z+1/2'
  53  '-x+1/2, -y+1/2, z+1/2'
  54  'x+1/2, y+1/2, -z+1/2'
  55  'y+1/2, -x+1/2, z+1/2'
  56  '-y+1/2, x+1/2, -z+1/2'
  57  'x+1/2, -y+1/2, -z+1/2'
  58  '-x+1/2, y+1/2, z+1/2'
  59  '-y+1/2, -x+1/2, -z+1/2'
  60  'y+1/2, x+1/2, z+1/2'
  61  '-x+1/2, y+1/2, -z+1/2'
  62  'x+1/2, -y+1/2, z+1/2'
  63  'y+1/2, x+1/2, -z+1/2'
  64  '-y+1/2, -x+1/2, z+1/2'
  65  'z+1/2, x+1/2, y+1/2'
  66  '-z+1/2, -x+1/2, -y+1/2'
  67  'z+1/2, -y+1/2, x+1/2'
  68  '-z+1/2, y+1/2, -x+1/2'
  69  'z+1/2, -x+1/2, -y+1/2'
  70  '-z+1/2, x+1/2, y+1/2'
  71  'z+1/2, y+1/2, -x+1/2'
  72  '-z+1/2, -y+1/2, x+1/2'
  73  '-z+1/2, x+1/2, -y+1/2'
  74  'z+1/2, -x+1/2, y+1/2'
  75  '-z+1/2, -y+1/2, -x+1/2'
  76  'z+1/2, y+1/2, x+1/2'
  77  '-z+1/2, -x+1/2, y+1/2'
  78  'z+1/2, x+1/2, -y+1/2'
  79  '-z+1/2, y+1/2, x+1/2'
  80  'z+1/2, -y+1/2, -x+1/2'
  81  'y+1/2, z+1/2, x+1/2'
  82  '-y+1/2, -z+1/2, -x+1/2'
  83  'x+1/2, z+1/2, -y+1/2'
  84  '-x+1/2, -z+1/2, y+1/2'
  85  '-y+1/2, z+1/2, -x+1/2'
  86  'y+1/2, -z+1/2, x+1/2'
  87  '-x+1/2, z+1/2, y+1/2'
  88  'x+1/2, -z+1/2, -y+1/2'
  89  '-y+1/2, -z+1/2, x+1/2'
  90  'y+1/2, z+1/2, -x+1/2'
  91  '-x+1/2, -z+1/2, -y+1/2'
  92  'x+1/2, z+1/2, y+1/2'
  93  'y+1/2, -z+1/2, -x+1/2'
  94  '-y+1/2, z+1/2, x+1/2'
  95  'x+1/2, -z+1/2, y+1/2'
  96  '-x+1/2, z+1/2, -y+1/2'
loop_
 _atom_site_type_symbol
 _atom_site_label
 _atom_site_symmetry_multiplicity
 _atom_site_fract_x
 _atom_site_fract_y
 _atom_site_fract_z
 _atom_site_occupancy
  Cu  Cu0  16  0.12763762  0.12763762  0.12763762  1
  Au  Au1  8  0.25000000  0.25000000  0.25000000  1
  Au  Au2  6  0.00000000  0.00000000  0.50000000  1
  Au  Au3  2  0.00000000  0.00000000  0.00000000  1
# generated using pymatgen
data_ID_11
_symmetry_space_group_name_H-M   Imma
_cell_length_a   5.45740040
_cell_length_b   7.80543744
_cell_length_c   5.35685760
_cell_angle_alpha   90.00000000
_cell_angle_beta   90.00000000
_cell_angle_gamma   90.00000000
_symmetry_Int_Tables_number   74
_chemical_formula_structural   CuAu
_cell_volume   228.18819220
_cell_formula_units_Z   8
loop_
 _symmetry_equiv_pos_site_id
 _symmetry_equiv_pos_as_xyz
  1  'x, y, z'
  2  '-x, -y, -z'
  3  '-x, -y+1/2, z'
  4  'x, y+1/2, -z'
  5  'x, -y, -z'
  6  '-x, y, z'
  7  '-x, y+1/2, -z'
  8  'x, -y+1/2, z'
  9  'x+1/2, y+1/2, z+1/2'
  10  '-x+1/2, -y+1/2, -z+1/2'
  11  '-x+1/2, -y, z+1/2'
  12  'x+1/2, y, -z+1/2'
  13  'x+1/2, -y+1/2, -z+1/2'
  14  '-x+1/2, y+1/2, z+1/2'
  15  '-x+1/2, y, -z+1/2'
  16  'x+1/2, -y, z+1/2'
loop_
 _atom_site_type_symbol
 _atom_site_label
 _atom_site_symmetry_multiplicity
 _atom_site_fract_x
 _atom_site_fract_y
 _atom_site_fract_z
 _atom_site_occupancy
  Cu  Cu0  4  0.00000000  0.00000000  0.50000000  1
  Cu  Cu1  4  0.25000000  0.25000000  0.25000000  1
  Au  Au2  4  0.00000000  0.00000000  0.00000000  1
  Au  Au3  4  0.25000000  0.25000000  0.75000000  1
# generated using pymatgen
data_ID_12
_symmetry_space_group_name_H-M   Cmcm
_cell_length_a   10.45384211
_cell_length_b   8.20362782
_cell_length_c   5.38707760
_cell_angle_alpha   90.00000000
_cell_angle_beta   90.00000000
_cell_angle_gamma   90.00000000
_symmetry_Int_Tables_number   63
_chemical_formula_structural   CuAu
_cell_volume   461.99270414
_cell_formula_units_Z   16
loop_
 _symmetry_equiv_pos_site_id
 _symmetry_equiv_pos_as_xyz
  1  'x, y, z'
  2  '-x, -y, -z'
  3  '-x, -y, z+1/2'
  4  'x, y, -z+1/2'
  5  'x, -y, -z'
  6  '-x, y, z'
  7  '-x, y, -z+1/2'
  8  'x, -y, z+1/2'
  9  'x+1/2, y+1/2, z'
  10  '-x+1/2, -y+1/2, -z'
  11  '-x+1/2, -y+1/2, z+1/2'
  12  'x+1/2, y+1/2, -z+1/2'
  13  'x+1/2, -y+1/2, -z'
  14  '-x+1/2, y+1/2, z'
  15  '-x+1/2, y+1/2, -z+1/2'
  16  'x+1/2, -y+1/2, z+1/2'
loop_
 _atom_site_type_symbol
 _atom_site_label
 _atom_site_symmetry_multiplicity
 _atom_site_fract_x
 _atom_site_fract_y
 _atom_site_fract_z
 _atom_site_occupancy
  Cu  Cu0  8  0.12297973  0.22178464  0.25000000  1
  Cu  Cu1  4  0.00000000  0.00000000  0.00000000  1
  Cu  Cu2  4  0.00000000  0.48799852  0.25000000  1
  Au  Au3  8  0.12779937  0.23048591  0.75000000  1
  Au  Au4  8  0.22653988  0.50000000  0.00000000  1
# generated using pymatgen
data_ID_13
_symmetry_space_group_name_H-M   Pc
_cell_length_a   4.68770208
_cell_length_b   10.91585078
_cell_length_c   4.68041758
_cell_angle_alpha   90.00000000
_cell_angle_beta   108.72551554
_cell_angle_gamma   90.00000000
_symmetry_Int_Tables_number   7
_chemical_formula_structural   CuAu
_cell_volume   226.82090840
_cell_formula_units_Z   8
loop_
 _symmetry_equiv_pos_site_id
 _symmetry_equiv_pos_as_xyz
  1  'x, y, z'
  2  'x, -y, z+1/2'
loop_
 _atom_site_type_symbol
 _atom_site_label
 _atom_site_symmetry_multiplicity
 _atom_site_fract_x
 _atom_site_fract_y
 _atom_site_fract_z
 _atom_site_occupancy
  Cu  Cu0  2  0.40686285  0.43621207  0.23066387  1
  Cu  Cu1  2  0.40800517  0.19694508  0.23168370  1
  Cu  Cu2  2  0.90726578  0.31438329  0.23078490  1
  Cu  Cu3  2  0.90783139  0.19264112  0.73182456  1
  Au  Au4  2  0.40714334  0.31564491  0.73100535  1
  Au  Au5  2  0.40820583  0.06703807  0.73207008  1
  Au  Au6  2  0.90688441  0.43846764  0.73042150  1
  Au  Au7  2  0.90819538  0.07374858  0.23206604  1
# generated using pymatgen
data_ID_14
_symmetry_space_group_name_H-M   P4_222
_cell_length_a   7.64687841
_cell_length_b   7.64687841
_cell_length_c   5.13118171
_cell_angle_alpha   90.00000000
_cell_angle_beta   90.00000000
_cell_angle_gamma   90.00000000
_symmetry_Int_Tables_number   93
_chemical_formula_structural   CuAu
_cell_volume   300.04456472
_cell_formula_units_Z   8
loop_
 _symmetry_equiv_pos_site_id
 _symmetry_equiv_pos_as_xyz
  1  'x, y, z'
  2  '-y, x, z+1/2'
  3  '-x, -y, z'
  4  'y, -x, z+1/2'
  5  'x, -y, -z'
  6  '-y, -x, -z+1/2'
  7  '-x, y, -z'
  8  'y, x, -z+1/2'
loop_
 _atom_site_type_symbol
 _atom_site_label
 _atom_site_symmetry_multiplicity
 _atom_site_fract_x
 _atom_site_fract_y
 _atom_site_fract_z
 _atom_site_occupancy
  Cu  Cu0  4  0.00000000  0.34804438  0.00000000  1
  Cu  Cu1  4  0.22616138  0.22616138  0.25000000  1
  Au  Au2  4  0.16817230  0.50000000  0.50000000  1
  Au  Au3  2  0.00000000  0.00000000  0.00000000  1
  Au  Au4  2  0.50000000  0.50000000  0.25000000  1
# generated using pymatgen
data_ID_15
_symmetry_space_group_name_H-M   I2_13
_cell_length_a   6.05831180
_cell_length_b   6.05831180
_cell_length_c   6.05831180
_cell_angle_alpha   90.00000000
_cell_angle_beta   90.00000000
_cell_angle_gamma   90.00000000
_symmetry_Int_Tables_number   199
_chemical_formula_structural   CuAu
_cell_volume   222.35907698
_cell_formula_units_Z   8
loop_
 _symmetry_equiv_pos_site_id
 _symmetry_equiv_pos_as_xyz
  1  'x, y, z'
  2  '-x, -y+1/2, z'
  3  'x, -y, -z+1/2'
  4  '-x, y+1/2, -z+1/2'
  5  'z, x, y'
  6  'z, -x, -y+1/2'
  7  '-z+1/2, x, -y'
  8  '-z+1/2, -x, y+1/2'
  9  'y, z, x'
  10  '-y+1/2, z, -x'
  11  '-y, -z+1/2, x'
  12  'y+1/2, -z+1/2, -x'
  13  'x+1/2, y+1/2, z+1/2'
  14  '-x+1/2, -y, z+1/2'
  15  'x+1/2, -y+1/2, -z'
  16  '-x+1/2, y, -z'
  17  'z+1/2, x+1/2, y+1/2'
  18  'z+1/2, -x+1/2, -y'
  19  '-z, x+1/2, -y+1/2'
  20  '-z, -x+1/2, y'
  21  'y+1/2, z+1/2, x+1/2'
  22  '-y, z+1/2, -x+1/2'
  23  '-y+1/2, -z, x+1/2'
  24  'y, -z, -x+1/2'
loop_
 _atom_site_type_symbol
 _atom_site_label
 _atom_site_symmetry_multiplicity
 _atom_site_fract_x
 _atom_site_fract_y
 _atom_site_fract_z
 _atom_site_occupancy
  Cu  Cu0  8  0.23815574  0.23815574  0.23815574  1
  Au  Au1  8  0.01017028  0.48982972  0.51017028  1
# generated using pymatgen
data_ID_16
_symmetry_space_group_name_H-M   P6/mmm
_cell_length_a   5.31976891
_cell_length_b   5.31976891
_cell_length_c   5.11487472
_cell_angle_alpha   90.00000000
_cell_angle_beta   90.00000000
_cell_angle_gamma   120.00000000
_symmetry_Int_Tables_number   191
_chemical_formula_structural   CuAu
_cell_volume   125.35774364
_cell_formula_units_Z   4
loop_
 _symmetry_equiv_pos_site_id
 _symmetry_equiv_pos_as_xyz
  1  'x, y, z'
  2  '-x, -y, -z'
  3  'x-y, x, z'
  4  '-x+y, -x, -z'
  5  '-y, x-y, z'
  6  'y, -x+y, -z'
  7  '-x, -y, z'
  8  'x, y, -z'
  9  '-x+y, -x, z'
  10  'x-y, x, -z'
  11  'y, -x+y, z'
  12  '-y, x-y, -z'
  13  '-y, -x, -z'
  14  'y, x, z'
  15  '-x, -x+y, -z'
  16  'x, x-y, z'
  17  '-x+y, y, -z'
  18  'x-y, -y, z'
  19  'y, x, -z'
  20  '-y, -x, z'
  21  'x, x-y, -z'
  22  '-x, -x+y, z'
  23  'x-y, -y, -z'
  24  '-x+y, y, z'
loop_
 _atom_site_type_symbol
 _atom_site_label
 _atom_site_symmetry_multiplicity
 _atom_site_fract_x
 _atom_site_fract_y
 _atom_site_fract_z
 _atom_site_occupancy
  Cu  Cu0  3  0.00000000  0.50000000  0.50000000  1
  Cu  Cu1  1  0.00000000  0.00000000  0.00000000  1
  Au  Au2  3  0.00000000  0.50000000  0.00000000  1
  Au  Au3  1  0.00000000  0.00000000  0.50000000  1
# generated using pymatgen
data_ID_17
_symmetry_space_group_name_H-M   I4_1/amd
_cell_length_a   3.78279107
_cell_length_b   3.78279107
_cell_length_c   7.87135257
_cell_angle_alpha   90.00000000
_cell_angle_beta   90.00000000
_cell_angle_gamma   90.00000000
_symmetry_Int_Tables_number   141
_chemical_formula_structural   CuAu
_cell_volume   112.63518448
_cell_formula_units_Z   4
loop_
 _symmetry_equiv_pos_site_id
 _symmetry_equiv_pos_as_xyz
  1  'x, y, z'
  2  '-y, x+1/2, z+1/4'
  3  '-x+1/2, -y+1/2, z+1/2'
  4  'y+1/2, -x, z+3/4'
  5  'x, -y+1/2, -z+1/4'
  6  '-y, -x, -z'
  7  '-x+1/2, y, -z+3/4'
  8  'y+1/2, x+1/2, -z+1/2'
  9  '-x, -y+1/2, -z+1/4'
  10  'y, -x, -z'
  11  'x+1/2, y, -z+3/4'
  12  '-y+1/2, x+1/2, -z+1/2'
  13  '-x, y, z'
  14  'y, x+1/2, z+1/4'
  15  'x+1/2, -y+1/2, z+1/2'
  16  '-y+1/2, -x, z+3/4'
  17  'x+1/2, y+1/2, z+1/2'
  18  '-y+1/2, x, z+3/4'
  19  '-x, -y, z'
  20  'y, -x+1/2, z+1/4'
  21  'x+1/2, -y, -z+3/4'
  22  '-y+1/2, -x+1/2, -z+1/2'
  23  '-x, y+1/2, -z+1/4'
  24  'y, x, -z'
  25  '-x+1/2, -y, -z+3/4'
  26  'y+1/2, -x+1/2, -z+1/2'
  27  'x, y+1/2, -z+1/4'
  28  '-y, x, -z'
  29  '-x+1/2, y+1/2, z+1/2'
  30  'y+1/2, x, z+3/4'
  31  'x, -y, z'
  32  '-y, -x+1/2, z+1/4'
loop_
 _atom_site_type_symbol
 _atom_site_label
 _atom_site_symmetry_multiplicity
 _atom_site_fract_x
 _atom_site_fract_y
 _atom_site_fract_z
 _atom_site_occupancy
  Cu  Cu0  4  0.00000000  0.00000000  0.00000000  1
  Au  Au1  4  0.00000000  0.00000000  0.50000000  1
# generated using pymatgen
data_ID_18
_symmetry_space_group_name_H-M   P222
_cell_length_a   5.22875114
_cell_length_b   7.48561806
_cell_length_c   8.39775542
_cell_angle_alpha   90.00000000
_cell_angle_beta   90.00000000
_cell_angle_gamma   90.00000000
_symmetry_Int_Tables_number   16
_chemical_formula_structural   CuAu
_cell_volume   328.69179111
_cell_formula_units_Z   8
loop_
 _symmetry_equiv_pos_site_id
 _symmetry_equiv_pos_as_xyz
  1  'x, y, z'
  2  '-x, -y, z'
  3  'x, -y, -z'
  4  '-x, y, -z'
loop_
 _atom_site_type_symbol
 _atom_site_label
 _atom_site_symmetry_multiplicity
 _atom_site_fract_x
 _atom_site_fract_y
 _atom_site_fract_z
 _atom_site_occupancy
  Cu  Cu0  4  0.18427228  0.36704448  0.74692966  1
  Cu  Cu1  2  0.00000000  0.16444162  0.00000000  1
  Cu  Cu2  1  0.00000000  0.50000000  0.00000000  1
  Cu  Cu3  1  0.00000000  0.50000000  0.50000000  1
  Au  Au4  4  0.24688200  0.00944818  0.73550717  1
  Au  Au5  2  0.00000000  0.18089192  0.50000000  1
  Au  Au6  1  0.50000000  0.00000000  0.00000000  1
  Au  Au7  1  0.50000000  0.50000000  0.50000000  1
# generated using pymatgen
data_ID_19
_symmetry_space_group_name_H-M   R-3m
_cell_length_a   11.31502200
_cell_length_b   11.31502200
_cell_length_c   9.61000471
_cell_angle_alpha   90.00000000
_cell_angle_beta   90.00000000
_cell_angle_gamma   120.00000000
_symmetry_Int_Tables_number   166
_chemical_formula_structural   CuAu
_cell_volume   1065.52841933
_cell_formula_units_Z   24
loop_
 _symmetry_equiv_pos_site_id
 _symmetry_equiv_pos_as_xyz
  1  'x, y, z'
  2  '-x, -y, -z'
  3  '-y, x-y, z'
  4  'y, -x+y, -z'
  5  '-x+y, -x, z'
  6  'x-y, x, -z'
  7  'y, x, -z'
  8  '-y, -x, z'
  9  'x-y, -y, -z'
  10  '-x+y, y, z'
  11  '-x, -x+y, -z'
  12  'x, x-y, z'
  13  'x+2/3, y+1/3, z+1/3'
  14  '-x+2/3, -y+1/3, -z+1/3'
  15  '-y+2/3, x-y+1/3, z+1/3'
  16  'y+2/3, -x+y+1/3, -z+1/3'
  17  '-x+y+2/3, -x+1/3, z+1/3'
  18  'x-y+2/3, x+1/3, -z+1/3'
  19  'y+2/3, x+1/3, -z+1/3'
  20  '-y+2/3, -x+1/3, z+1/3'
  21  'x-y+2/3, -y+1/3, -z+1/3'
  22  '-x+y+2/3, y+1/3, z+1/3'
  23  '-x+2/3, -x+y+1/3, -z+1/3'
  24  'x+2/3, x-y+1/3, z+1/3'
  25  'x+1/3, y+2/3, z+2/3'
  26  '-x+1/3, -y+2/3, -z+2/3'
  27  '-y+1/3, x-y+2/3, z+2/3'
  28  'y+1/3, -x+y+2/3, -z+2/3'
  29  '-x+y+1/3, -x+2/3, z+2/3'
  30  'x-y+1/3, x+2/3, -z+2/3'
  31  'y+1/3, x+2/3, -z+2/3'
  32  '-y+1/3, -x+2/3, z+2/3'
  33  'x-y+1/3, -y+2/3, -z+2/3'
  34  '-x+y+1/3, y+2/3, z+2/3'
  35  '-x+1/3, -x+y+2/3, -z+2/3'
  36  'x+1/3, x-y+2/3, z+2/3'
loop_
 _atom_site_type_symbol
 _atom_site_label
 _atom_site_symmetry_multiplicity
 _atom_site_fract_x
 _atom_site_fract_y
 _atom_site_fract_z
 _atom_site_occupancy
  Cu  Cu0  18  0.00000000  0.22151504  0.00000000  1
  Cu  Cu1  3  0.00000000  0.00000000  0.00000000  1
  Cu  Cu2  3  0.00000000  0.00000000  0.50000000  1
  Au  Au3  18  0.09812995  0.54906497  0.24947905  1
  Au  Au4  6  0.00000000  0.00000000  0.25020037  1
# generated using pymatgen
data_ID_20
_symmetry_space_group_name_H-M   P4/mmm
_cell_length_a   2.80055470
_cell_length_b   2.80055470
_cell_length_c   3.56639270
_cell_angle_alpha   90.00000000
_cell_angle_beta   90.00000000
_cell_angle_gamma   90.00000000
_symmetry_Int_Tables_number   123
_chemical_formula_structural   CuAu
_cell_volume   27.97159831
_cell_formula_units_Z   1
loop_
 _symmetry_equiv_pos_site_id
 _symmetry_equiv_pos_as_xyz
  1  'x, y, z'
  2  '-x, -y, -z'
  3  '-y, x, z'
  4  'y, -x, -z'
  5  '-x, -y, z'
  6  'x, y, -z'
  7  'y, -x, z'
  8  '-y, x, -z'
  9  'x, -y, -z'
  10  '-x, y, z'
  11  '-y, -x, -z'
  12  'y, x, z'
  13  '-x, y, -z'
  14  'x, -y, z'
  15  'y, x, -z'
  16  '-y, -x, z'
loop_
 _atom_site_type_symbol
 _atom_site_label
 _atom_site_symmetry_multiplicity
 _atom_site_fract_x
 _atom_site_fract_y
 _atom_site_fract_z
 _atom_site_occupancy
  Cu  Cu0  1  0.00000000  0.00000000  0.00000000  1
  Au  Au1  1  0.50000000  0.50000000  0.50000000  1
# generated using pymatgen
data_ID_21
_symmetry_space_group_name_H-M   P4_2/mmc
_cell_length_a   6.21026905
_cell_length_b   6.21026905
_cell_length_c   2.92759161
_cell_angle_alpha   90.00000000
_cell_angle_beta   90.00000000
_cell_angle_gamma   90.00000000
_symmetry_Int_Tables_number   131
_chemical_formula_structural   CuAu
_cell_volume   112.90971871
_cell_formula_units_Z   4
loop_
 _symmetry_equiv_pos_site_id
 _symmetry_equiv_pos_as_xyz
  1  'x, y, z'
  2  '-x, -y, -z'
  3  '-y, x, z+1/2'
  4  'y, -x, -z+1/2'
  5  '-x, -y, z'
  6  'x, y, -z'
  7  'y, -x, z+1/2'
  8  '-y, x, -z+1/2'
  9  'x, -y, -z'
  10  '-x, y, z'
  11  '-y, -x, -z+1/2'
  12  'y, x, z+1/2'
  13  '-x, y, -z'
  14  'x, -y, z'
  15  'y, x, -z+1/2'
  16  '-y, -x, z+1/2'
loop_
 _atom_site_type_symbol
 _atom_site_label
 _atom_site_symmetry_multiplicity
 _atom_site_fract_x
 _atom_site_fract_y
 _atom_site_fract_z
 _atom_site_occupancy
  Cu  Cu0  4  0.00000000  0.23074567  0.50000000  1
  Au  Au1  4  0.22979465  0.50000000  0.00000000  1
# generated using pymatgen
data_ID_22
_symmetry_space_group_name_H-M   Pm-3m
_cell_length_a   3.02721772
_cell_length_b   3.02721772
_cell_length_c   3.02721772
_cell_angle_alpha   90.00000000
_cell_angle_beta   90.00000000
_cell_angle_gamma   90.00000000
_symmetry_Int_Tables_number   221
_chemical_formula_structural   CuAu
_cell_volume   27.74156597
_cell_formula_units_Z   1
loop_
 _symmetry_equiv_pos_site_id
 _symmetry_equiv_pos_as_xyz
  1  'x, y, z'
  2  '-x, -y, -z'
  3  '-y, x, z'
  4  'y, -x, -z'
  5  '-x, -y, z'
  6  'x, y, -z'
  7  'y, -x, z'
  8  '-y, x, -z'
  9  'x, -y, -z'
  10  '-x, y, z'
  11  '-y, -x, -z'
  12  'y, x, z'
  13  '-x, y, -z'
  14  'x, -y, z'
  15  'y, x, -z'
  16  '-y, -x, z'
  17  'z, x, y'
  18  '-z, -x, -y'
  19  'z, -y, x'
  20  '-z, y, -x'
  21  'z, -x, -y'
  22  '-z, x, y'
  23  'z, y, -x'
  24  '-z, -y, x'
  25  '-z, x, -y'
  26  'z, -x, y'
  27  '-z, -y, -x'
  28  'z, y, x'
  29  '-z, -x, y'
  30  'z, x, -y'
  31  '-z, y, x'
  32  'z, -y, -x'
  33  'y, z, x'
  34  '-y, -z, -x'
  35  'x, z, -y'
  36  '-x, -z, y'
  37  '-y, z, -x'
  38  'y, -z, x'
  39  '-x, z, y'
  40  'x, -z, -y'
  41  '-y, -z, x'
  42  'y, z, -x'
  43  '-x, -z, -y'
  44  'x, z, y'
  45  'y, -z, -x'
  46  '-y, z, x'
  47  'x, -z, y'
  48  '-x, z, -y'
loop_
 _atom_site_type_symbol
 _atom_site_label
 _atom_site_symmetry_multiplicity
 _atom_site_fract_x
 _atom_site_fract_y
 _atom_site_fract_z
 _atom_site_occupancy
  Cu  Cu0  1  0.00000000  0.00000000  0.00000000  1
  Au  Au1  1  0.50000000  0.50000000  0.50000000  1
# generated using pymatgen
data_ID_23
_symmetry_space_group_name_H-M   P4/mmm
_cell_length_a   8.83366435
_cell_length_b   8.83366435
_cell_length_c   5.00299700
_cell_angle_alpha   90.00000000
_cell_angle_beta   90.00000000
_cell_angle_gamma   90.00000000
_symmetry_Int_Tables_number   123
_chemical_formula_structural   CuAu
_cell_volume   390.40199662
_cell_formula_units_Z   8
loop_
 _symmetry_equiv_pos_site_id
 _symmetry_equiv_pos_as_xyz
  1  'x, y, z'
  2  '-x, -y, -z'
  3  '-y, x, z'
  4  'y, -x, -z'
  5  '-x, -y, z'
  6  'x, y, -z'
  7  'y, -x, z'
  8  '-y, x, -z'
  9  'x, -y, -z'
  10  '-x, y, z'
  11  '-y, -x, -z'
  12  'y, x, z'
  13  '-x, y, -z'
  14  'x, -y, z'
  15  'y, x, -z'
  16  '-y, -x, z'
loop_
 _atom_site_type_symbol
 _atom_site_label
 _atom_site_symmetry_multiplicity
 _atom_site_fract_x
 _atom_site_fract_y
 _atom_site_fract_z
 _atom_site_occupancy
  Cu  Cu0  4  0.13002999  0.13002999  0.00000000  1
  Cu  Cu1  4  0.30981188  0.30981188  0.00000000  1
  Au  Au2  4  0.14809382  0.14809382  0.50000000  1
  Au  Au3  2  0.00000000  0.50000000  0.00000000  1
  Au  Au4  1  0.50000000  0.50000000  0.00000000  1
  Au  Au5  1  0.50000000  0.50000000  0.50000000  1
# generated using pymatgen
data_ID_24
_symmetry_space_group_name_H-M   P6_3/m
_cell_length_a   7.76676055
_cell_length_b   7.76676055
_cell_length_c   4.90338077
_cell_angle_alpha   90.00000000
_cell_angle_beta   90.00000000
_cell_angle_gamma   120.00000000
_symmetry_Int_Tables_number   176
_chemical_formula_structural   CuAu
_cell_volume   256.15691471
_cell_formula_units_Z   8
loop_
 _symmetry_equiv_pos_site_id
 _symmetry_equiv_pos_as_xyz
  1  'x, y, z'
  2  '-x, -y, -z'
  3  'x-y, x, z+1/2'
  4  '-x+y, -x, -z+1/2'
  5  '-y, x-y, z'
  6  'y, -x+y, -z'
  7  '-x, -y, z+1/2'
  8  'x, y, -z+1/2'
  9  '-x+y, -x, z'
  10  'x-y, x, -z'
  11  'y, -x+y, z+1/2'
  12  '-y, x-y, -z+1/2'
loop_
 _atom_site_type_symbol
 _atom_site_label
 _atom_site_symmetry_multiplicity
 _atom_site_fract_x
 _atom_site_fract_y
 _atom_site_fract_z
 _atom_site_occupancy
  Cu  Cu0  6  0.05047411  0.33759652  0.75000000  1
  Cu  Cu1  2  0.33333333  0.66666667  0.75000000  1
  Au  Au2  6  0.12382306  0.46047348  0.25000000  1
  Au  Au3  2  0.00000000  0.00000000  0.25000000  1
# generated using pymatgen
data_ID_25
_symmetry_space_group_name_H-M   P4_2/ncm
_cell_length_a   7.19773006
_cell_length_b   7.19773006
_cell_length_c   4.69766380
_cell_angle_alpha   90.00000000
_cell_angle_beta   90.00000000
_cell_angle_gamma   90.00000000
_symmetry_Int_Tables_number   138
_chemical_formula_structural   CuAu
_cell_volume   243.37336232
_cell_formula_units_Z   8
loop_
 _symmetry_equiv_pos_site_id
 _symmetry_equiv_pos_as_xyz
  1  'x, y, z'
  2  '-y+1/2, x+1/2, z+1/2'
  3  '-x, -y, z'
  4  'y+1/2, -x+1/2, z+1/2'
  5  'x+1/2, -y+1/2, -z'
  6  '-y, -x, -z+1/2'
  7  '-x+1/2, y+1/2, -z'
  8  'y, x, -z+1/2'
  9  '-x+1/2, -y+1/2, -z+1/2'
  10  'y, -x, -z'
  11  'x+1/2, y+1/2, -z+1/2'
  12  '-y, x, -z'
  13  '-x, y, z+1/2'
  14  'y+1/2, x+1/2, z'
  15  'x, -y, z+1/2'
  16  '-y+1/2, -x+1/2, z'
loop_
 _atom_site_type_symbol
 _atom_site_label
 _atom_site_symmetry_multiplicity
 _atom_site_fract_x
 _atom_site_fract_y
 _atom_site_fract_z
 _atom_site_occupancy
  Cu  Cu0  4  0.00000000  0.00000000  0.25000000  1
  Cu  Cu1  4  0.25000000  0.25000000  0.75000000  1
  Au  Au2  8  0.12493743  0.37506257  0.25282446  1
# generated using pymatgen
data_ID_26
_symmetry_space_group_name_H-M   P6/mmm
_cell_length_a   9.11621633
_cell_length_b   9.11621633
_cell_length_c   4.56679716
_cell_angle_alpha   90.00000000
_cell_angle_beta   90.00000000
_cell_angle_gamma   120.00000000
_symmetry_Int_Tables_number   191
_chemical_formula_structural   CuAu
_cell_volume   328.67872854
_cell_formula_units_Z   8
loop_
 _symmetry_equiv_pos_site_id
 _symmetry_equiv_pos_as_xyz
  1  'x, y, z'
  2  '-x, -y, -z'
  3  'x-y, x, z'
  4  '-x+y, -x, -z'
  5  '-y, x-y, z'
  6  'y, -x+y, -z'
  7  '-x, -y, z'
  8  'x, y, -z'
  9  '-x+y, -x, z'
  10  'x-y, x, -z'
  11  'y, -x+y, z'
  12  '-y, x-y, -z'
  13  '-y, -x, -z'
  14  'y, x, z'
  15  '-x, -x+y, -z'
  16  'x, x-y, z'
  17  '-x+y, y, -z'
  18  'x-y, -y, z'
  19  'y, x, -z'
  20  '-y, -x, z'
  21  'x, x-y, -z'
  22  '-x, -x+y, z'
  23  'x-y, -y, -z'
  24  '-x+y, y, z'
loop_
 _atom_site_type_symbol
 _atom_site_label
 _atom_site_symmetry_multiplicity
 _atom_site_fract_x
 _atom_site_fract_y
 _atom_site_fract_z
 _atom_site_occupancy
  Cu  Cu0  6  0.00000000  0.27838327  0.00000000  1
  Cu  Cu1  1  0.00000000  0.00000000  0.00000000  1
  Cu  Cu2  1  0.00000000  0.00000000  0.50000000  1
  Au  Au3  6  0.16906455  0.33812910  0.50000000  1
  Au  Au4  2  0.33333333  0.66666667  0.50000000  1
# generated using pymatgen
data_ID_27
_symmetry_space_group_name_H-M   C2/c
_cell_length_a   7.36748057
_cell_length_b   6.54836587
_cell_length_c   10.02018834
_cell_angle_alpha   90.00000000
_cell_angle_beta   102.79131610
_cell_angle_gamma   90.00000000
_symmetry_Int_Tables_number   15
_chemical_formula_structural   CuAu
_cell_volume   471.42640774
_cell_formula_units_Z   16
loop_
 _symmetry_equiv_pos_site_id
 _symmetry_equiv_pos_as_xyz
  1  'x, y, z'
  2  '-x, -y, -z'
  3  '-x, y, -z+1/2'
  4  'x, -y, z+1/2'
  5  'x+1/2, y+1/2, z'
  6  '-x+1/2, -y+1/2, -z'
  7  '-x+1/2, y+1/2, -z+1/2'
  8  'x+1/2, -y+1/2, z+1/2'
loop_
 _atom_site_type_symbol
 _atom_site_label
 _atom_site_symmetry_multiplicity
 _atom_site_fract_x
 _atom_site_fract_y
 _atom_site_fract_z
 _atom_site_occupancy
  Cu  Cu0  8  0.12000012  0.13023621  0.53154044  1
  Cu  Cu1  4  0.00000000  0.19830144  0.75000000  1
  Cu  Cu2  4  0.25000000  0.25000000  0.00000000  1
  Au  Au3  8  0.02754062  0.44776027  0.38254348  1
  Au  Au4  8  0.19018062  0.12767913  0.25527029  1
# generated using pymatgen
data_ID_28
_symmetry_space_group_name_H-M   C222_1
_cell_length_a   6.46919125
_cell_length_b   7.41035523
_cell_length_c   9.54149942
_cell_angle_alpha   90.00000000
_cell_angle_beta   90.00000000
_cell_angle_gamma   90.00000000
_symmetry_Int_Tables_number   20
_chemical_formula_structural   CuAu
_cell_volume   457.40999100
_cell_formula_units_Z   16
loop_
 _symmetry_equiv_pos_site_id
 _symmetry_equiv_pos_as_xyz
  1  'x, y, z'
  2  '-x, -y, z+1/2'
  3  'x, -y, -z'
  4  '-x, y, -z+1/2'
  5  'x+1/2, y+1/2, z'
  6  '-x+1/2, -y+1/2, z+1/2'
  7  'x+1/2, -y+1/2, -z'
  8  '-x+1/2, y+1/2, -z+1/2'
loop_
 _atom_site_type_symbol
 _atom_site_label
 _atom_site_symmetry_multiplicity
 _atom_site_fract_x
 _atom_site_fract_y
 _atom_site_fract_z
 _atom_site_occupancy
  Cu  Cu0  8  0.18158139  0.39129362  0.60037610  1
  Cu  Cu1  4  0.00000000  0.06673836  0.25000000  1
  Cu  Cu2  4  0.04575310  0.00000000  0.50000000  1
  Au  Au3  8  0.11121978  0.39142367  0.12507589  1
  Au  Au4  8  0.18206122  0.23600317  0.85635209  1
# generated using pymatgen
data_ID_29
_symmetry_space_group_name_H-M   I4_1/amd
_cell_length_a   4.99631219
_cell_length_b   4.99631219
_cell_length_c   36.18874706
_cell_angle_alpha   90.00000000
_cell_angle_beta   90.00000000
_cell_angle_gamma   90.00000000
_symmetry_Int_Tables_number   141
_chemical_formula_structural   CuAu
_cell_volume   903.38459725
_cell_formula_units_Z   16
loop_
 _symmetry_equiv_pos_site_id
 _symmetry_equiv_pos_as_xyz
  1  'x, y, z'
  2  '-y, x+1/2, z+1/4'
  3  '-x+1/2, -y+1/2, z+1/2'
  4  'y+1/2, -x, z+3/4'
  5  'x, -y+1/2, -z+1/4'
  6  '-y, -x, -z'
  7  '-x+1/2, y, -z+3/4'
  8  'y+1/2, x+1/2, -z+1/2'
  9  '-x, -y+1/2, -z+1/4'
  10  'y, -x, -z'
  11  'x+1/2, y, -z+3/4'
  12  '-y+1/2, x+1/2, -z+1/2'
  13  '-x, y, z'
  14  'y, x+1/2, z+1/4'
  15  'x+1/2, -y+1/2, z+1/2'
  16  '-y+1/2, -x, z+3/4'
  17  'x+1/2, y+1/2, z+1/2'
  18  '-y+1/2, x, z+3/4'
  19  '-x, -y, z'
  20  'y, -x+1/2, z+1/4'
  21  'x+1/2, -y, -z+3/4'
  22  '-y+1/2, -x+1/2, -z+1/2'
  23  '-x, y+1/2, -z+1/4'
  24  'y, x, -z'
  25  '-x+1/2, -y, -z+3/4'
  26  'y+1/2, -x+1/2, -z+1/2'
  27  'x, y+1/2, -z+1/4'
  28  '-y, x, -z'
  29  '-x+1/2, y+1/2, z+1/2'
  30  'y+1/2, x, z+3/4'
  31  'x, -y, z'
  32  '-y, -x+1/2, z+1/4'
loop_
 _atom_site_type_symbol
 _atom_site_label
 _atom_site_symmetry_multiplicity
 _atom_site_fract_x
 _atom_site_fract_y
 _atom_site_fract_z
 _atom_site_occupancy
  Cu  Cu0  8  0.00000000  0.25000000  0.62500000  1
  Cu  Cu1  4  0.00000000  0.00000000  0.00000000  1
  Cu  Cu2  4  0.00000000  0.00000000  0.50000000  1
  Au  Au3  8  0.00000000  0.00000000  0.43360996  1
  Au  Au4  8  0.00000000  0.25000000  0.12500000  1
# generated using pymatgen
data_ID_30
_symmetry_space_group_name_H-M   I4_1/acd
_cell_length_a   12.47485372
_cell_length_b   12.47485372
_cell_length_c   5.05761795
_cell_angle_alpha   90.00000000
_cell_angle_beta   90.00000000
_cell_angle_gamma   90.00000000
_symmetry_Int_Tables_number   142
_chemical_formula_structural   CuAu
_cell_volume   787.07649603
_cell_formula_units_Z   16
loop_
 _symmetry_equiv_pos_site_id
 _symmetry_equiv_pos_as_xyz
  1  'x, y, z'
  2  '-y, x+1/2, z+1/4'
  3  '-x+1/2, -y+1/2, z+1/2'
  4  'y+1/2, -x, z+3/4'
  5  'x+1/2, -y, -z+1/4'
  6  '-y+1/2, -x+1/2, -z'
  7  '-x, y+1/2, -z+3/4'
  8  'y, x, -z+1/2'
  9  '-x, -y+1/2, -z+1/4'
  10  'y, -x, -z'
  11  'x+1/2, y, -z+3/4'
  12  '-y+1/2, x+1/2, -z+1/2'
  13  '-x+1/2, y+1/2, z'
  14  'y+1/2, x, z+1/4'
  15  'x, -y, z+1/2'
  16  '-y, -x+1/2, z+3/4'
  17  'x+1/2, y+1/2, z+1/2'
  18  '-y+1/2, x, z+3/4'
  19  '-x, -y, z'
  20  'y, -x+1/2, z+1/4'
  21  'x, -y+1/2, -z+3/4'
  22  '-y, -x, -z+1/2'
  23  '-x+1/2, y, -z+1/4'
  24  'y+1/2, x+1/2, -z'
  25  '-x+1/2, -y, -z+3/4'
  26  'y+1/2, -x+1/2, -z+1/2'
  27  'x, y+1/2, -z+1/4'
  28  '-y, x, -z'
  29  '-x, y, z+1/2'
  30  'y, x+1/2, z+3/4'
  31  'x+1/2, -y+1/2, z'
  32  '-y+1/2, -x, z+1/4'
loop_
 _atom_site_type_symbol
 _atom_site_label
 _atom_site_symmetry_multiplicity
 _atom_site_fract_x
 _atom_site_fract_y
 _atom_site_fract_z
 _atom_site_occupancy
  Cu  Cu0  16  0.06750834  0.06750834  0.75000000  1
  Au  Au1  16  0.00000000  0.25000000  0.12500000  1
# generated using pymatgen
data_ID_31
_symmetry_space_group_name_H-M   Fmmm
_cell_length_a   7.94762789
_cell_length_b   10.04460239
_cell_length_c   13.18251400
_cell_angle_alpha   90.00000000
_cell_angle_beta   90.00000000
_cell_angle_gamma   90.00000000
_symmetry_Int_Tables_number   69
_chemical_formula_structural   CuAu
_cell_volume   1052.37013855
_cell_formula_units_Z   32
loop_
 _symmetry_equiv_pos_site_id
 _symmetry_equiv_pos_as_xyz
  1  'x, y, z'
  2  '-x, -y, -z'
  3  '-x, -y, z'
  4  'x, y, -z'
  5  'x, -y, -z'
  6  '-x, y, z'
  7  '-x, y, -z'
  8  'x, -y, z'
  9  'x+1/2, y, z+1/2'
  10  '-x+1/2, -y, -z+1/2'
  11  '-x+1/2, -y, z+1/2'
  12  'x+1/2, y, -z+1/2'
  13  'x+1/2, -y, -z+1/2'
  14  '-x+1/2, y, z+1/2'
  15  '-x+1/2, y, -z+1/2'
  16  'x+1/2, -y, z+1/2'
  17  'x+1/2, y+1/2, z'
  18  '-x+1/2, -y+1/2, -z'
  19  '-x+1/2, -y+1/2, z'
  20  'x+1/2, y+1/2, -z'
  21  'x+1/2, -y+1/2, -z'
  22  '-x+1/2, y+1/2, z'
  23  '-x+1/2, y+1/2, -z'
  24  'x+1/2, -y+1/2, z'
  25  'x, y+1/2, z+1/2'
  26  '-x, -y+1/2, -z+1/2'
  27  '-x, -y+1/2, z+1/2'
  28  'x, y+1/2, -z+1/2'
  29  'x, -y+1/2, -z+1/2'
  30  '-x, y+1/2, z+1/2'
  31  '-x, y+1/2, -z+1/2'
  32  'x, -y+1/2, z+1/2'
loop_
 _atom_site_type_symbol
 _atom_site_label
 _atom_site_symmetry_multiplicity
 _atom_site_fract_x
 _atom_site_fract_y
 _atom_site_fract_z
 _atom_site_occupancy
  Cu  Cu0  16  0.00000000  0.13367735  0.34120579  1
  Cu  Cu1  8  0.25000000  0.25000000  0.00000000  1
  Cu  Cu2  4  0.00000000  0.00000000  0.00000000  1
  Cu  Cu3  4  0.00000000  0.00000000  0.50000000  1
  Au  Au4  32  0.16627736  0.13115222  0.16105606  1
# generated using pymatgen
data_ID_32
_symmetry_space_group_name_H-M   P4_2/mnm
_cell_length_a   5.10851188
_cell_length_b   5.10851188
_cell_length_c   11.95440433
_cell_angle_alpha   90.00000000
_cell_angle_beta   90.00000000
_cell_angle_gamma   90.00000000
_symmetry_Int_Tables_number   136
_chemical_formula_structural   CuAu
_cell_volume   311.97281844
_cell_formula_units_Z   8
loop_
 _symmetry_equiv_pos_site_id
 _symmetry_equiv_pos_as_xyz
  1  'x, y, z'
  2  '-x, -y, -z'
  3  '-y+1/2, x+1/2, z+1/2'
  4  'y+1/2, -x+1/2, -z+1/2'
  5  '-x, -y, z'
  6  'x, y, -z'
  7  'y+1/2, -x+1/2, z+1/2'
  8  '-y+1/2, x+1/2, -z+1/2'
  9  'x+1/2, -y+1/2, -z+1/2'
  10  '-x+1/2, y+1/2, z+1/2'
  11  '-y, -x, -z'
  12  'y, x, z'
  13  '-x+1/2, y+1/2, -z+1/2'
  14  'x+1/2, -y+1/2, z+1/2'
  15  'y, x, -z'
  16  '-y, -x, z'
loop_
 _atom_site_type_symbol
 _atom_site_label
 _atom_site_symmetry_multiplicity
 _atom_site_fract_x
 _atom_site_fract_y
 _atom_site_fract_z
 _atom_site_occupancy
  Cu  Cu0  8  0.00000000  0.50000000  0.14737717  1
  Au  Au1  4  0.00000000  0.00000000  0.11882266  1
  Au  Au2  4  0.18135795  0.81864205  0.50000000  1
# generated using pymatgen
data_ID_33
_symmetry_space_group_name_H-M   P4_12_12
_cell_length_a   5.12504669
_cell_length_b   5.12504669
_cell_length_c   9.10010715
_cell_angle_alpha   90.00000000
_cell_angle_beta   90.00000000
_cell_angle_gamma   90.00000000
_symmetry_Int_Tables_number   92
_chemical_formula_structural   CuAu
_cell_volume   239.02435706
_cell_formula_units_Z   8
loop_
 _symmetry_equiv_pos_site_id
 _symmetry_equiv_pos_as_xyz
  1  'x, y, z'
  2  '-y+1/2, x+1/2, z+1/4'
  3  '-x, -y, z+1/2'
  4  'y+1/2, -x+1/2, z+3/4'
  5  'x+1/2, -y+1/2, -z+3/4'
  6  '-y, -x, -z+1/2'
  7  '-x+1/2, y+1/2, -z+1/4'
  8  'y, x, -z'
loop_
 _atom_site_type_symbol
 _atom_site_label
 _atom_site_symmetry_multiplicity
 _atom_site_fract_x
 _atom_site_fract_y
 _atom_site_fract_z
 _atom_site_occupancy
  Cu  Cu0  4  0.04551443  0.04551443  0.50000000  1
  Cu  Cu1  4  0.18573966  0.81426034  0.25000000  1
  Au  Au2  8  0.05836636  0.31257105  0.25264064  1
# generated using pymatgen
data_ID_34
_symmetry_space_group_name_H-M   I4/mmm
_cell_length_a   6.13005321
_cell_length_b   6.13005321
_cell_length_c   5.90941164
_cell_angle_alpha   90.00000000
_cell_angle_beta   90.00000000
_cell_angle_gamma   90.00000000
_symmetry_Int_Tables_number   139
_chemical_formula_structural   CuAu
_cell_volume   222.06122548
_cell_formula_units_Z   8
loop_
 _symmetry_equiv_pos_site_id
 _symmetry_equiv_pos_as_xyz
  1  'x, y, z'
  2  '-x, -y, -z'
  3  '-y, x, z'
  4  'y, -x, -z'
  5  '-x, -y, z'
  6  'x, y, -z'
  7  'y, -x, z'
  8  '-y, x, -z'
  9  'x, -y, -z'
  10  '-x, y, z'
  11  '-y, -x, -z'
  12  'y, x, z'
  13  '-x, y, -z'
  14  'x, -y, z'
  15  'y, x, -z'
  16  '-y, -x, z'
  17  'x+1/2, y+1/2, z+1/2'
  18  '-x+1/2, -y+1/2, -z+1/2'
  19  '-y+1/2, x+1/2, z+1/2'
  20  'y+1/2, -x+1/2, -z+1/2'
  21  '-x+1/2, -y+1/2, z+1/2'
  22  'x+1/2, y+1/2, -z+1/2'
  23  'y+1/2, -x+1/2, z+1/2'
  24  '-y+1/2, x+1/2, -z+1/2'
  25  'x+1/2, -y+1/2, -z+1/2'
  26  '-x+1/2, y+1/2, z+1/2'
  27  '-y+1/2, -x+1/2, -z+1/2'
  28  'y+1/2, x+1/2, z+1/2'
  29  '-x+1/2, y+1/2, -z+1/2'
  30  'x+1/2, -y+1/2, z+1/2'
  31  'y+1/2, x+1/2, -z+1/2'
  32  '-y+1/2, -x+1/2, z+1/2'
loop_
 _atom_site_type_symbol
 _atom_site_label
 _atom_site_symmetry_multiplicity
 _atom_site_fract_x
 _atom_site_fract_y
 _atom_site_fract_z
 _atom_site_occupancy
  Cu  Cu0  4  0.00000000  0.00000000  0.25636530  1
  Cu  Cu1  4  0.00000000  0.50000000  0.25000000  1
  Au  Au2  8  0.24729294  0.24729294  0.00000000  1
# generated using pymatgen
data_ID_35
_symmetry_space_group_name_H-M   F-43m
_cell_length_a   10.21676890
_cell_length_b   10.21676890
_cell_length_c   10.21676890
_cell_angle_alpha   90.00000000
_cell_angle_beta   90.00000000
_cell_angle_gamma   90.00000000
_symmetry_Int_Tables_number   216
_chemical_formula_structural   CuAu
_cell_volume   1066.45051906
_cell_formula_units_Z   32
loop_
 _symmetry_equiv_pos_site_id
 _symmetry_equiv_pos_as_xyz
  1  'x, y, z'
  2  'y, -x, -z'
  3  '-x, -y, z'
  4  '-y, x, -z'
  5  'x, -y, -z'
  6  'y, x, z'
  7  '-x, y, -z'
  8  '-y, -x, z'
  9  'z, x, y'
  10  '-z, y, -x'
  11  'z, -x, -y'
  12  '-z, -y, x'
  13  '-z, x, -y'
  14  'z, y, x'
  15  '-z, -x, y'
  16  'z, -y, -x'
  17  'y, z, x'
  18  '-x, -z, y'
  19  '-y, z, -x'
  20  'x, -z, -y'
  21  '-y, -z, x'
  22  'x, z, y'
  23  'y, -z, -x'
  24  '-x, z, -y'
  25  'x+1/2, y+1/2, z'
  26  'y+1/2, -x+1/2, -z'
  27  '-x+1/2, -y+1/2, z'
  28  '-y+1/2, x+1/2, -z'
  29  'x+1/2, -y+1/2, -z'
  30  'y+1/2, x+1/2, z'
  31  '-x+1/2, y+1/2, -z'
  32  '-y+1/2, -x+1/2, z'
  33  'z+1/2, x+1/2, y'
  34  '-z+1/2, y+1/2, -x'
  35  'z+1/2, -x+1/2, -y'
  36  '-z+1/2, -y+1/2, x'
  37  '-z+1/2, x+1/2, -y'
  38  'z+1/2, y+1/2, x'
  39  '-z+1/2, -x+1/2, y'
  40  'z+1/2, -y+1/2, -x'
  41  'y+1/2, z+1/2, x'
  42  '-x+1/2, -z+1/2, y'
  43  '-y+1/2, z+1/2, -x'
  44  'x+1/2, -z+1/2, -y'
  45  '-y+1/2, -z+1/2, x'
  46  'x+1/2, z+1/2, y'
  47  'y+1/2, -z+1/2, -x'
  48  '-x+1/2, z+1/2, -y'
  49  'x+1/2, y, z+1/2'
  50  'y+1/2, -x, -z+1/2'
  51  '-x+1/2, -y, z+1/2'
  52  '-y+1/2, x, -z+1/2'
  53  'x+1/2, -y, -z+1/2'
  54  'y+1/2, x, z+1/2'
  55  '-x+1/2, y, -z+1/2'
  56  '-y+1/2, -x, z+1/2'
  57  'z+1/2, x, y+1/2'
  58  '-z+1/2, y, -x+1/2'
  59  'z+1/2, -x, -y+1/2'
  60  '-z+1/2, -y, x+1/2'
  61  '-z+1/2, x, -y+1/2'
  62  'z+1/2, y, x+1/2'
  63  '-z+1/2, -x, y+1/2'
  64  'z+1/2, -y, -x+1/2'
  65  'y+1/2, z, x+1/2'
  66  '-x+1/2, -z, y+1/2'
  67  '-y+1/2, z, -x+1/2'
  68  'x+1/2, -z, -y+1/2'
  69  '-y+1/2, -z, x+1/2'
  70  'x+1/2, z, y+1/2'
  71  'y+1/2, -z, -x+1/2'
  72  '-x+1/2, z, -y+1/2'
  73  'x, y+1/2, z+1/2'
  74  'y, -x+1/2, -z+1/2'
  75  '-x, -y+1/2, z+1/2'
  76  '-y, x+1/2, -z+1/2'
  77  'x, -y+1/2, -z+1/2'
  78  'y, x+1/2, z+1/2'
  79  '-x, y+1/2, -z+1/2'
  80  '-y, -x+1/2, z+1/2'
  81  'z, x+1/2, y+1/2'
  82  '-z, y+1/2, -x+1/2'
  83  'z, -x+1/2, -y+1/2'
  84  '-z, -y+1/2, x+1/2'
  85  '-z, x+1/2, -y+1/2'
  86  'z, y+1/2, x+1/2'
  87  '-z, -x+1/2, y+1/2'
  88  'z, -y+1/2, -x+1/2'
  89  'y, z+1/2, x+1/2'
  90  '-x, -z+1/2, y+1/2'
  91  '-y, z+1/2, -x+1/2'
  92  'x, -z+1/2, -y+1/2'
  93  '-y, -z+1/2, x+1/2'
  94  'x, z+1/2, y+1/2'
  95  'y, -z+1/2, -x+1/2'
  96  '-x, z+1/2, -y+1/2'
loop_
 _atom_site_type_symbol
 _atom_site_label
 _atom_site_symmetry_multiplicity
 _atom_site_fract_x
 _atom_site_fract_y
 _atom_site_fract_z
 _atom_site_occupancy
  Cu  Cu0  24  0.00439745  0.25000000  0.75000000  1
  Cu  Cu1  4  0.00000000  0.00000000  0.00000000  1
  Cu  Cu2  4  0.25000000  0.25000000  0.75000000  1
  Au  Au3  24  0.00000000  0.00000000  0.24163458  1
  Au  Au4  4  0.00000000  0.00000000  0.50000000  1
  Au  Au5  4  0.25000000  0.25000000  0.25000000  1
# generated using pymatgen
data_ID_36
_symmetry_space_group_name_H-M   I4/m
_cell_length_a   7.61666021
_cell_length_b   7.61666021
_cell_length_c   7.80818945
_cell_angle_alpha   90.00000000
_cell_angle_beta   90.00000000
_cell_angle_gamma   90.00000000
_symmetry_Int_Tables_number   87
_chemical_formula_structural   CuAu
_cell_volume   452.98049869
_cell_formula_units_Z   16
loop_
 _symmetry_equiv_pos_site_id
 _symmetry_equiv_pos_as_xyz
  1  'x, y, z'
  2  '-x, -y, -z'
  3  '-y, x, z'
  4  'y, -x, -z'
  5  '-x, -y, z'
  6  'x, y, -z'
  7  'y, -x, z'
  8  '-y, x, -z'
  9  'x+1/2, y+1/2, z+1/2'
  10  '-x+1/2, -y+1/2, -z+1/2'
  11  '-y+1/2, x+1/2, z+1/2'
  12  'y+1/2, -x+1/2, -z+1/2'
  13  '-x+1/2, -y+1/2, z+1/2'
  14  'x+1/2, y+1/2, -z+1/2'
  15  'y+1/2, -x+1/2, z+1/2'
  16  '-y+1/2, x+1/2, -z+1/2'
loop_
 _atom_site_type_symbol
 _atom_site_label
 _atom_site_symmetry_multiplicity
 _atom_site_fract_x
 _atom_site_fract_y
 _atom_site_fract_z
 _atom_site_occupancy
  Cu  Cu0  8  0.00106408  0.75241566  0.50000000  1
  Cu  Cu1  8  0.25000000  0.25000000  0.25000000  1
  Au  Au2  8  0.00087358  0.74618554  0.00000000  1
  Au  Au3  4  0.00000000  0.00000000  0.26533262  1
  Au  Au4  4  0.00000000  0.50000000  0.25000000  1
# generated using pymatgen
data_ID_37
_symmetry_space_group_name_H-M   Fd-3m
_cell_length_a   15.83548097
_cell_length_b   15.83548097
_cell_length_c   15.83548097
_cell_angle_alpha   90.00000000
_cell_angle_beta   90.00000000
_cell_angle_gamma   90.00000000
_symmetry_Int_Tables_number   227
_chemical_formula_structural   CuAu
_cell_volume   3970.94412445
_cell_formula_units_Z   32
loop_
 _symmetry_equiv_pos_site_id
 _symmetry_equiv_pos_as_xyz
  1  'x, y, z'
  2  '-y+1/4, x+1/4, z+1/4'
  3  '-x, -y+1/2, z+1/2'
  4  'y+3/4, -x+1/4, z+3/4'
  5  'x, -y, -z'
  6  '-y+1/4, -x+3/4, -z+3/4'
  7  '-x, y+1/2, -z+1/2'
  8  'y+3/4, x+3/4, -z+1/4'
  9  'z, x, y'
  10  'z+1/4, -y+1/4, x+1/4'
  11  'z+1/2, -x, -y+1/2'
  12  'z+3/4, y+3/4, -x+1/4'
  13  '-z, x, -y'
  14  '-z+3/4, -y+1/4, -x+3/4'
  15  '-z+1/2, -x, y+1/2'
  16  '-z+1/4, y+3/4, x+3/4'
  17  'y, z, x'
  18  'x+1/4, z+1/4, -y+1/4'
  19  '-y+1/2, z+1/2, -x'
  20  '-x+1/4, z+3/4, y+3/4'
  21  '-y, -z, x'
  22  '-x+3/4, -z+3/4, -y+1/4'
  23  'y+1/2, -z+1/2, -x'
  24  'x+3/4, -z+1/4, y+3/4'
  25  '-x+1/4, -y+1/4, -z+1/4'
  26  'y, -x, -z'
  27  'x+1/4, y+3/4, -z+3/4'
  28  '-y+1/2, x, -z+1/2'
  29  '-x+1/4, y+1/4, z+1/4'
  30  'y, x+1/2, z+1/2'
  31  'x+1/4, -y+3/4, z+3/4'
  32  '-y+1/2, -x+1/2, z'
  33  '-z+1/4, -x+1/4, -y+1/4'
  34  '-z, y, -x'
  35  '-z+3/4, x+1/4, y+3/4'
  36  '-z+1/2, -y+1/2, x'
  37  'z+1/4, -x+1/4, y+1/4'
  38  'z+1/2, y, x+1/2'
  39  'z+3/4, x+1/4, -y+3/4'
  40  'z, -y+1/2, -x+1/2'
  41  '-y+1/4, -z+1/4, -x+1/4'
  42  '-x, -z, y'
  43  'y+3/4, -z+3/4, x+1/4'
  44  'x, -z+1/2, -y+1/2'
  45  'y+1/4, z+1/4, -x+1/4'
  46  'x+1/2, z+1/2, y'
  47  '-y+3/4, z+3/4, x+1/4'
  48  '-x+1/2, z, -y+1/2'
  49  'x+1/2, y+1/2, z'
  50  '-y+3/4, x+3/4, z+1/4'
  51  '-x+1/2, -y, z+1/2'
  52  'y+1/4, -x+3/4, z+3/4'
  53  'x+1/2, -y+1/2, -z'
  54  '-y+3/4, -x+1/4, -z+3/4'
  55  '-x+1/2, y, -z+1/2'
  56  'y+1/4, x+1/4, -z+1/4'
  57  'z+1/2, x+1/2, y'
  58  'z+3/4, -y+3/4, x+1/4'
  59  'z, -x+1/2, -y+1/2'
  60  'z+1/4, y+1/4, -x+1/4'
  61  '-z+1/2, x+1/2, -y'
  62  '-z+1/4, -y+3/4, -x+3/4'
  63  '-z, -x+1/2, y+1/2'
  64  '-z+3/4, y+1/4, x+3/4'
  65  'y+1/2, z+1/2, x'
  66  'x+3/4, z+3/4, -y+1/4'
  67  '-y, z, -x'
  68  '-x+3/4, z+1/4, y+3/4'
  69  '-y+1/2, -z+1/2, x'
  70  '-x+1/4, -z+1/4, -y+1/4'
  71  'y, -z, -x'
  72  'x+1/4, -z+3/4, y+3/4'
  73  '-x+3/4, -y+3/4, -z+1/4'
  74  'y+1/2, -x+1/2, -z'
  75  'x+3/4, y+1/4, -z+3/4'
  76  '-y, x+1/2, -z+1/2'
  77  '-x+3/4, y+3/4, z+1/4'
  78  'y+1/2, x, z+1/2'
  79  'x+3/4, -y+1/4, z+3/4'
  80  '-y, -x, z'
  81  '-z+3/4, -x+3/4, -y+1/4'
  82  '-z+1/2, y+1/2, -x'
  83  '-z+1/4, x+3/4, y+3/4'
  84  '-z, -y, x'
  85  'z+3/4, -x+3/4, y+1/4'
  86  'z, y+1/2, x+1/2'
  87  'z+1/4, x+3/4, -y+3/4'
  88  'z+1/2, -y, -x+1/2'
  89  '-y+3/4, -z+3/4, -x+1/4'
  90  '-x+1/2, -z+1/2, y'
  91  'y+1/4, -z+1/4, x+1/4'
  92  'x+1/2, -z, -y+1/2'
  93  'y+3/4, z+3/4, -x+1/4'
  94  'x, z, y'
  95  '-y+1/4, z+1/4, x+1/4'
  96  '-x, z+1/2, -y+1/2'
  97  'x+1/2, y, z+1/2'
  98  '-y+3/4, x+1/4, z+3/4'
  99  '-x+1/2, -y+1/2, z'
  100  'y+1/4, -x+1/4, z+1/4'
  101  'x+1/2, -y, -z+1/2'
  102  '-y+3/4, -x+3/4, -z+1/4'
  103  '-x+1/2, y+1/2, -z'
  104  'y+1/4, x+3/4, -z+3/4'
  105  'z+1/2, x, y+1/2'
  106  'z+3/4, -y+1/4, x+3/4'
  107  'z, -x, -y'
  108  'z+1/4, y+3/4, -x+3/4'
  109  '-z+1/2, x, -y+1/2'
  110  '-z+1/4, -y+1/4, -x+1/4'
  111  '-z, -x, y'
  112  '-z+3/4, y+3/4, x+1/4'
  113  'y+1/2, z, x+1/2'
  114  'x+3/4, z+1/4, -y+3/4'
  115  '-y, z+1/2, -x+1/2'
  116  '-x+3/4, z+3/4, y+1/4'
  117  '-y+1/2, -z, x+1/2'
  118  '-x+1/4, -z+3/4, -y+3/4'
  119  'y, -z+1/2, -x+1/2'
  120  'x+1/4, -z+1/4, y+1/4'
  121  '-x+3/4, -y+1/4, -z+3/4'
  122  'y+1/2, -x, -z+1/2'
  123  'x+3/4, y+3/4, -z+1/4'
  124  '-y, x, -z'
  125  '-x+3/4, y+1/4, z+3/4'
  126  'y+1/2, x+1/2, z'
  127  'x+3/4, -y+3/4, z+1/4'
  128  '-y, -x+1/2, z+1/2'
  129  '-z+3/4, -x+1/4, -y+3/4'
  130  '-z+1/2, y, -x+1/2'
  131  '-z+1/4, x+1/4, y+1/4'
  132  '-z, -y+1/2, x+1/2'
  133  'z+3/4, -x+1/4, y+3/4'
  134  'z, y, x'
  135  'z+1/4, x+1/4, -y+1/4'
  136  'z+1/2, -y+1/2, -x'
  137  '-y+3/4, -z+1/4, -x+3/4'
  138  '-x+1/2, -z, y+1/2'
  139  'y+1/4, -z+3/4, x+3/4'
  140  'x+1/2, -z+1/2, -y'
  141  'y+3/4, z+1/4, -x+3/4'
  142  'x, z+1/2, y+1/2'
  143  '-y+1/4, z+3/4, x+3/4'
  144  '-x, z, -y'
  145  'x, y+1/2, z+1/2'
  146  '-y+1/4, x+3/4, z+3/4'
  147  '-x, -y, z'
  148  'y+3/4, -x+3/4, z+1/4'
  149  'x, -y+1/2, -z+1/2'
  150  '-y+1/4, -x+1/4, -z+1/4'
  151  '-x, y, -z'
  152  'y+3/4, x+1/4, -z+3/4'
  153  'z, x+1/2, y+1/2'
  154  'z+1/4, -y+3/4, x+3/4'
  155  'z+1/2, -x+1/2, -y'
  156  'z+3/4, y+1/4, -x+3/4'
  157  '-z, x+1/2, -y+1/2'
  158  '-z+3/4, -y+3/4, -x+1/4'
  159  '-z+1/2, -x+1/2, y'
  160  '-z+1/4, y+1/4, x+1/4'
  161  'y, z+1/2, x+1/2'
  162  'x+1/4, z+3/4, -y+3/4'
  163  '-y+1/2, z, -x+1/2'
  164  '-x+1/4, z+1/4, y+1/4'
  165  '-y, -z+1/2, x+1/2'
  166  '-x+3/4, -z+1/4, -y+3/4'
  167  'y+1/2, -z, -x+1/2'
  168  'x+3/4, -z+3/4, y+1/4'
  169  '-x+1/4, -y+3/4, -z+3/4'
  170  'y, -x+1/2, -z+1/2'
  171  'x+1/4, y+1/4, -z+1/4'
  172  '-y+1/2, x+1/2, -z'
  173  '-x+1/4, y+3/4, z+3/4'
  174  'y, x, z'
  175  'x+1/4, -y+1/4, z+1/4'
  176  '-y+1/2, -x, z+1/2'
  177  '-z+1/4, -x+3/4, -y+3/4'
  178  '-z, y+1/2, -x+1/2'
  179  '-z+3/4, x+3/4, y+1/4'
  180  '-z+1/2, -y, x+1/2'
  181  'z+1/4, -x+3/4, y+3/4'
  182  'z+1/2, y+1/2, x'
  183  'z+3/4, x+3/4, -y+1/4'
  184  'z, -y, -x'
  185  '-y+1/4, -z+3/4, -x+3/4'
  186  '-x, -z+1/2, y+1/2'
  187  'y+3/4, -z+1/4, x+3/4'
  188  'x, -z, -y'
  189  'y+1/4, z+3/4, -x+3/4'
  190  'x+1/2, z, y+1/2'
  191  '-y+3/4, z+1/4, x+3/4'
  192  '-x+1/2, z+1/2, -y'
loop_
 _atom_site_type_symbol
 _atom_site_label
 _atom_site_symmetry_multiplicity
 _atom_site_fract_x
 _atom_site_fract_y
 _atom_site_fract_z
 _atom_site_occupancy
  Cu  Cu0  32  0.08438190  0.08438190  0.08438190  1
  Au  Au1  16  0.12500000  0.12500000  0.62500000  1
  Au  Au2  8  0.00000000  0.00000000  0.00000000  1
  Au  Au3  8  0.00000000  0.00000000  0.50000000  1
# generated using pymatgen
data_ID_38
_symmetry_space_group_name_H-M   F-43m
_cell_length_a   11.56878863
_cell_length_b   11.56878863
_cell_length_c   11.56878863
_cell_angle_alpha   90.00000000
_cell_angle_beta   90.00000000
_cell_angle_gamma   90.00000000
_symmetry_Int_Tables_number   216
_chemical_formula_structural   CuAu
_cell_volume   1548.33046463
_cell_formula_units_Z   32
loop_
 _symmetry_equiv_pos_site_id
 _symmetry_equiv_pos_as_xyz
  1  'x, y, z'
  2  'y, -x, -z'
  3  '-x, -y, z'
  4  '-y, x, -z'
  5  'x, -y, -z'
  6  'y, x, z'
  7  '-x, y, -z'
  8  '-y, -x, z'
  9  'z, x, y'
  10  '-z, y, -x'
  11  'z, -x, -y'
  12  '-z, -y, x'
  13  '-z, x, -y'
  14  'z, y, x'
  15  '-z, -x, y'
  16  'z, -y, -x'
  17  'y, z, x'
  18  '-x, -z, y'
  19  '-y, z, -x'
  20  'x, -z, -y'
  21  '-y, -z, x'
  22  'x, z, y'
  23  'y, -z, -x'
  24  '-x, z, -y'
  25  'x+1/2, y+1/2, z'
  26  'y+1/2, -x+1/2, -z'
  27  '-x+1/2, -y+1/2, z'
  28  '-y+1/2, x+1/2, -z'
  29  'x+1/2, -y+1/2, -z'
  30  'y+1/2, x+1/2, z'
  31  '-x+1/2, y+1/2, -z'
  32  '-y+1/2, -x+1/2, z'
  33  'z+1/2, x+1/2, y'
  34  '-z+1/2, y+1/2, -x'
  35  'z+1/2, -x+1/2, -y'
  36  '-z+1/2, -y+1/2, x'
  37  '-z+1/2, x+1/2, -y'
  38  'z+1/2, y+1/2, x'
  39  '-z+1/2, -x+1/2, y'
  40  'z+1/2, -y+1/2, -x'
  41  'y+1/2, z+1/2, x'
  42  '-x+1/2, -z+1/2, y'
  43  '-y+1/2, z+1/2, -x'
  44  'x+1/2, -z+1/2, -y'
  45  '-y+1/2, -z+1/2, x'
  46  'x+1/2, z+1/2, y'
  47  'y+1/2, -z+1/2, -x'
  48  '-x+1/2, z+1/2, -y'
  49  'x+1/2, y, z+1/2'
  50  'y+1/2, -x, -z+1/2'
  51  '-x+1/2, -y, z+1/2'
  52  '-y+1/2, x, -z+1/2'
  53  'x+1/2, -y, -z+1/2'
  54  'y+1/2, x, z+1/2'
  55  '-x+1/2, y, -z+1/2'
  56  '-y+1/2, -x, z+1/2'
  57  'z+1/2, x, y+1/2'
  58  '-z+1/2, y, -x+1/2'
  59  'z+1/2, -x, -y+1/2'
  60  '-z+1/2, -y, x+1/2'
  61  '-z+1/2, x, -y+1/2'
  62  'z+1/2, y, x+1/2'
  63  '-z+1/2, -x, y+1/2'
  64  'z+1/2, -y, -x+1/2'
  65  'y+1/2, z, x+1/2'
  66  '-x+1/2, -z, y+1/2'
  67  '-y+1/2, z, -x+1/2'
  68  'x+1/2, -z, -y+1/2'
  69  '-y+1/2, -z, x+1/2'
  70  'x+1/2, z, y+1/2'
  71  'y+1/2, -z, -x+1/2'
  72  '-x+1/2, z, -y+1/2'
  73  'x, y+1/2, z+1/2'
  74  'y, -x+1/2, -z+1/2'
  75  '-x, -y+1/2, z+1/2'
  76  '-y, x+1/2, -z+1/2'
  77  'x, -y+1/2, -z+1/2'
  78  'y, x+1/2, z+1/2'
  79  '-x, y+1/2, -z+1/2'
  80  '-y, -x+1/2, z+1/2'
  81  'z, x+1/2, y+1/2'
  82  '-z, y+1/2, -x+1/2'
  83  'z, -x+1/2, -y+1/2'
  84  '-z, -y+1/2, x+1/2'
  85  '-z, x+1/2, -y+1/2'
  86  'z, y+1/2, x+1/2'
  87  '-z, -x+1/2, y+1/2'
  88  'z, -y+1/2, -x+1/2'
  89  'y, z+1/2, x+1/2'
  90  '-x, -z+1/2, y+1/2'
  91  '-y, z+1/2, -x+1/2'
  92  'x, -z+1/2, -y+1/2'
  93  '-y, -z+1/2, x+1/2'
  94  'x, z+1/2, y+1/2'
  95  'y, -z+1/2, -x+1/2'
  96  '-x, z+1/2, -y+1/2'
loop_
 _atom_site_type_symbol
 _atom_site_label
 _atom_site_symmetry_multiplicity
 _atom_site_fract_x
 _atom_site_fract_y
 _atom_site_fract_z
 _atom_site_occupancy
  Cu  Cu0  24  0.00000000  0.00000000  0.34212645  1
  Cu  Cu1  4  0.00000000  0.00000000  0.00000000  1
  Cu  Cu2  4  0.25000000  0.25000000  0.75000000  1
  Au  Au3  16  0.12017351  0.12017351  0.12017351  1
  Au  Au4  16  0.15908977  0.15908977  0.34091023  1
# generated using pymatgen
data_ID_39
_symmetry_space_group_name_H-M   P4/mmm
_cell_length_a   6.61069337
_cell_length_b   6.61069337
_cell_length_c   2.72506999
_cell_angle_alpha   90.00000000
_cell_angle_beta   90.00000000
_cell_angle_gamma   90.00000000
_symmetry_Int_Tables_number   123
_chemical_formula_structural   CuAu
_cell_volume   119.08901075
_cell_formula_units_Z   4
loop_
 _symmetry_equiv_pos_site_id
 _symmetry_equiv_pos_as_xyz
  1  'x, y, z'
  2  '-x, -y, -z'
  3  '-y, x, z'
  4  'y, -x, -z'
  5  '-x, -y, z'
  6  'x, y, -z'
  7  'y, -x, z'
  8  '-y, x, -z'
  9  'x, -y, -z'
  10  '-x, y, z'
  11  '-y, -x, -z'
  12  'y, x, z'
  13  '-x, y, -z'
  14  'x, -y, z'
  15  'y, x, -z'
  16  '-y, -x, z'
loop_
 _atom_site_type_symbol
 _atom_site_label
 _atom_site_symmetry_multiplicity
 _atom_site_fract_x
 _atom_site_fract_y
 _atom_site_fract_z
 _atom_site_occupancy
  Cu  Cu0  2  0.00000000  0.50000000  0.00000000  1
  Cu  Cu1  1  0.00000000  0.00000000  0.00000000  1
  Cu  Cu2  1  0.50000000  0.50000000  0.50000000  1
  Au  Au3  4  0.23280724  0.23280724  0.50000000  1
# generated using pymatgen
data_ID_40
_symmetry_space_group_name_H-M   P4_2/mcm
_cell_length_a   7.13862948
_cell_length_b   7.13862948
_cell_length_c   4.72813043
_cell_angle_alpha   90.00000000
_cell_angle_beta   90.00000000
_cell_angle_gamma   90.00000000
_symmetry_Int_Tables_number   132
_chemical_formula_structural   CuAu
_cell_volume   240.94567272
_cell_formula_units_Z   8
loop_
 _symmetry_equiv_pos_site_id
 _symmetry_equiv_pos_as_xyz
  1  'x, y, z'
  2  '-x, -y, -z'
  3  '-y, x, z+1/2'
  4  'y, -x, -z+1/2'
  5  '-x, -y, z'
  6  'x, y, -z'
  7  'y, -x, z+1/2'
  8  '-y, x, -z+1/2'
  9  'x, -y, -z+1/2'
  10  '-x, y, z+1/2'
  11  '-y, -x, -z'
  12  'y, x, z'
  13  '-x, y, -z+1/2'
  14  'x, -y, z+1/2'
  15  'y, x, -z'
  16  '-y, -x, z'
loop_
 _atom_site_type_symbol
 _atom_site_label
 _atom_site_symmetry_multiplicity
 _atom_site_fract_x
 _atom_site_fract_y
 _atom_site_fract_z
 _atom_site_occupancy
  Cu  Cu0  4  0.24039745  0.24039745  0.00000000  1
  Cu  Cu1  2  0.00000000  0.00000000  0.25000000  1
  Cu  Cu2  2  0.50000000  0.50000000  0.00000000  1
  Au  Au3  8  0.12257309  0.37210304  0.50000000  1
# generated using pymatgen
data_ID_41
_symmetry_space_group_name_H-M   Im-3m
_cell_length_a   11.16788280
_cell_length_b   11.16788280
_cell_length_c   11.16788280
_cell_angle_alpha   90.00000000
_cell_angle_beta   90.00000000
_cell_angle_gamma   90.00000000
_symmetry_Int_Tables_number   229
_chemical_formula_structural   CuAu
_cell_volume   1392.87627936
_cell_formula_units_Z   16
loop_
 _symmetry_equiv_pos_site_id
 _symmetry_equiv_pos_as_xyz
  1  'x, y, z'
  2  '-x, -y, -z'
  3  '-y, x, z'
  4  'y, -x, -z'
  5  '-x, -y, z'
  6  'x, y, -z'
  7  'y, -x, z'
  8  '-y, x, -z'
  9  'x, -y, -z'
  10  '-x, y, z'
  11  '-y, -x, -z'
  12  'y, x, z'
  13  '-x, y, -z'
  14  'x, -y, z'
  15  'y, x, -z'
  16  '-y, -x, z'
  17  'z, x, y'
  18  '-z, -x, -y'
  19  'z, -y, x'
  20  '-z, y, -x'
  21  'z, -x, -y'
  22  '-z, x, y'
  23  'z, y, -x'
  24  '-z, -y, x'
  25  '-z, x, -y'
  26  'z, -x, y'
  27  '-z, -y, -x'
  28  'z, y, x'
  29  '-z, -x, y'
  30  'z, x, -y'
  31  '-z, y, x'
  32  'z, -y, -x'
  33  'y, z, x'
  34  '-y, -z, -x'
  35  'x, z, -y'
  36  '-x, -z, y'
  37  '-y, z, -x'
  38  'y, -z, x'
  39  '-x, z, y'
  40  'x, -z, -y'
  41  '-y, -z, x'
  42  'y, z, -x'
  43  '-x, -z, -y'
  44  'x, z, y'
  45  'y, -z, -x'
  46  '-y, z, x'
  47  'x, -z, y'
  48  '-x, z, -y'
  49  'x+1/2, y+1/2, z+1/2'
  50  '-x+1/2, -y+1/2, -z+1/2'
  51  '-y+1/2, x+1/2, z+1/2'
  52  'y+1/2, -x+1/2, -z+1/2'
  53  '-x+1/2, -y+1/2, z+1/2'
  54  'x+1/2, y+1/2, -z+1/2'
  55  'y+1/2, -x+1/2, z+1/2'
  56  '-y+1/2, x+1/2, -z+1/2'
  57  'x+1/2, -y+1/2, -z+1/2'
  58  '-x+1/2, y+1/2, z+1/2'
  59  '-y+1/2, -x+1/2, -z+1/2'
  60  'y+1/2, x+1/2, z+1/2'
  61  '-x+1/2, y+1/2, -z+1/2'
  62  'x+1/2, -y+1/2, z+1/2'
  63  'y+1/2, x+1/2, -z+1/2'
  64  '-y+1/2, -x+1/2, z+1/2'
  65  'z+1/2, x+1/2, y+1/2'
  66  '-z+1/2, -x+1/2, -y+1/2'
  67  'z+1/2, -y+1/2, x+1/2'
  68  '-z+1/2, y+1/2, -x+1/2'
  69  'z+1/2, -x+1/2, -y+1/2'
  70  '-z+1/2, x+1/2, y+1/2'
  71  'z+1/2, y+1/2, -x+1/2'
  72  '-z+1/2, -y+1/2, x+1/2'
  73  '-z+1/2, x+1/2, -y+1/2'
  74  'z+1/2, -x+1/2, y+1/2'
  75  '-z+1/2, -y+1/2, -x+1/2'
  76  'z+1/2, y+1/2, x+1/2'
  77  '-z+1/2, -x+1/2, y+1/2'
  78  'z+1/2, x+1/2, -y+1/2'
  79  '-z+1/2, y+1/2, x+1/2'
  80  'z+1/2, -y+1/2, -x+1/2'
  81  'y+1/2, z+1/2, x+1/2'
  82  '-y+1/2, -z+1/2, -x+1/2'
  83  'x+1/2, z+1/2, -y+1/2'
  84  '-x+1/2, -z+1/2, y+1/2'
  85  '-y+1/2, z+1/2, -x+1/2'
  86  'y+1/2, -z+1/2, x+1/2'
  87  '-x+1/2, z+1/2, y+1/2'
  88  'x+1/2, -z+1/2, -y+1/2'
  89  '-y+1/2, -z+1/2, x+1/2'
  90  'y+1/2, z+1/2, -x+1/2'
  91  '-x+1/2, -z+1/2, -y+1/2'
  92  'x+1/2, z+1/2, y+1/2'
  93  'y+1/2, -z+1/2, -x+1/2'
  94  '-y+1/2, z+1/2, x+1/2'
  95  'x+1/2, -z+1/2, y+1/2'
  96  '-x+1/2, z+1/2, -y+1/2'
loop_
 _atom_site_type_symbol
 _atom_site_label
 _atom_site_symmetry_multiplicity
 _atom_site_fract_x
 _atom_site_fract_y
 _atom_site_fract_z
 _atom_site_occupancy
  Cu  Cu0  8  0.25000000  0.25000000  0.25000000  1
  Cu  Cu1  6  0.00000000  0.00000000  0.50000000  1
  Cu  Cu2  2  0.00000000  0.00000000  0.00000000  1
  Au  Au3  16  0.12413417  0.87586583  0.12413417  1
# generated using pymatgen
data_ID_42
_symmetry_space_group_name_H-M   Pmmm
_cell_length_a   2.63155014
_cell_length_b   5.31288725
_cell_length_c   9.40594412
_cell_angle_alpha   90.00000000
_cell_angle_beta   90.00000000
_cell_angle_gamma   90.00000000
_symmetry_Int_Tables_number   47
_chemical_formula_structural   CuAu
_cell_volume   131.50571994
_cell_formula_units_Z   4
loop_
 _symmetry_equiv_pos_site_id
 _symmetry_equiv_pos_as_xyz
  1  'x, y, z'
  2  '-x, -y, -z'
  3  '-x, -y, z'
  4  'x, y, -z'
  5  'x, -y, -z'
  6  '-x, y, z'
  7  '-x, y, -z'
  8  'x, -y, z'
loop_
 _atom_site_type_symbol
 _atom_site_label
 _atom_site_symmetry_multiplicity
 _atom_site_fract_x
 _atom_site_fract_y
 _atom_site_fract_z
 _atom_site_occupancy
  Cu  Cu0  2  0.50000000  0.24954566  0.50000000  1
  Cu  Cu1  1  0.00000000  0.00000000  0.00000000  1
  Cu  Cu2  1  0.50000000  0.50000000  0.00000000  1
  Au  Au3  4  0.50000000  0.24609083  0.22853674  1
# generated using pymatgen
data_ID_43
_symmetry_space_group_name_H-M   P4/nmm
_cell_length_a   6.68955636
_cell_length_b   6.68955636
_cell_length_c   7.73904961
_cell_angle_alpha   90.00000000
_cell_angle_beta   90.00000000
_cell_angle_gamma   90.00000000
_symmetry_Int_Tables_number   129
_chemical_formula_structural   CuAu
_cell_volume   346.32374118
_cell_formula_units_Z   8
loop_
 _symmetry_equiv_pos_site_id
 _symmetry_equiv_pos_as_xyz
  1  'x, y, z'
  2  '-y+1/2, x+1/2, z'
  3  '-x, -y, z'
  4  'y+1/2, -x+1/2, z'
  5  'x+1/2, -y+1/2, -z'
  6  '-y, -x, -z'
  7  '-x+1/2, y+1/2, -z'
  8  'y, x, -z'
  9  '-x+1/2, -y+1/2, -z'
  10  'y, -x, -z'
  11  'x+1/2, y+1/2, -z'
  12  '-y, x, -z'
  13  '-x, y, z'
  14  'y+1/2, x+1/2, z'
  15  'x, -y, z'
  16  '-y+1/2, -x+1/2, z'
loop_
 _atom_site_type_symbol
 _atom_site_label
 _atom_site_symmetry_multiplicity
 _atom_site_fract_x
 _atom_site_fract_y
 _atom_site_fract_z
 _atom_site_occupancy
  Cu  Cu0  4  0.25000000  0.25000000  0.00000000  1
  Cu  Cu1  4  0.25000000  0.25000000  0.50000000  1
  Au  Au2  4  0.00000000  0.00000000  0.33587379  1
  Au  Au3  2  0.00000000  0.00000000  0.00000000  1
  Au  Au4  2  0.00000000  0.50000000  0.63489022  1
# generated using pymatgen
data_ID_44
_symmetry_space_group_name_H-M   P4_2/mcm
_cell_length_a   8.42003920
_cell_length_b   8.42003920
_cell_length_c   5.24728861
_cell_angle_alpha   90.00000000
_cell_angle_beta   90.00000000
_cell_angle_gamma   90.00000000
_symmetry_Int_Tables_number   132
_chemical_formula_structural   CuAu
_cell_volume   372.01733638
_cell_formula_units_Z   8
loop_
 _symmetry_equiv_pos_site_id
 _symmetry_equiv_pos_as_xyz
  1  'x, y, z'
  2  '-x, -y, -z'
  3  '-y, x, z+1/2'
  4  'y, -x, -z+1/2'
  5  '-x, -y, z'
  6  'x, y, -z'
  7  'y, -x, z+1/2'
  8  '-y, x, -z+1/2'
  9  'x, -y, -z+1/2'
  10  '-x, y, z+1/2'
  11  '-y, -x, -z'
  12  'y, x, z'
  13  '-x, y, -z+1/2'
  14  'x, -y, z+1/2'
  15  'y, x, -z'
  16  '-y, -x, z'
loop_
 _atom_site_type_symbol
 _atom_site_label
 _atom_site_symmetry_multiplicity
 _atom_site_fract_x
 _atom_site_fract_y
 _atom_site_fract_z
 _atom_site_occupancy
  Cu  Cu0  4  0.20745375  0.20745375  0.50000000  1
  Cu  Cu1  4  0.40403457  0.40403457  0.50000000  1
  Au  Au2  8  0.15786326  0.50000000  0.25000000  1
# generated using pymatgen
data_ID_45
_symmetry_space_group_name_H-M   Pm-3m
_cell_length_a   3.02778004
_cell_length_b   3.02778004
_cell_length_c   3.02778004
_cell_angle_alpha   90.00000000
_cell_angle_beta   90.00000000
_cell_angle_gamma   90.00000000
_symmetry_Int_Tables_number   221
_chemical_formula_structural   CuAu
_cell_volume   27.75702812
_cell_formula_units_Z   1
loop_
 _symmetry_equiv_pos_site_id
 _symmetry_equiv_pos_as_xyz
  1  'x, y, z'
  2  '-x, -y, -z'
  3  '-y, x, z'
  4  'y, -x, -z'
  5  '-x, -y, z'
  6  'x, y, -z'
  7  'y, -x, z'
  8  '-y, x, -z'
  9  'x, -y, -z'
  10  '-x, y, z'
  11  '-y, -x, -z'
  12  'y, x, z'
  13  '-x, y, -z'
  14  'x, -y, z'
  15  'y, x, -z'
  16  '-y, -x, z'
  17  'z, x, y'
  18  '-z, -x, -y'
  19  'z, -y, x'
  20  '-z, y, -x'
  21  'z, -x, -y'
  22  '-z, x, y'
  23  'z, y, -x'
  24  '-z, -y, x'
  25  '-z, x, -y'
  26  'z, -x, y'
  27  '-z, -y, -x'
  28  'z, y, x'
  29  '-z, -x, y'
  30  'z, x, -y'
  31  '-z, y, x'
  32  'z, -y, -x'
  33  'y, z, x'
  34  '-y, -z, -x'
  35  'x, z, -y'
  36  '-x, -z, y'
  37  '-y, z, -x'
  38  'y, -z, x'
  39  '-x, z, y'
  40  'x, -z, -y'
  41  '-y, -z, x'
  42  'y, z, -x'
  43  '-x, -z, -y'
  44  'x, z, y'
  45  'y, -z, -x'
  46  '-y, z, x'
  47  'x, -z, y'
  48  '-x, z, -y'
loop_
 _atom_site_type_symbol
 _atom_site_label
 _atom_site_symmetry_multiplicity
 _atom_site_fract_x
 _atom_site_fract_y
 _atom_site_fract_z
 _atom_site_occupancy
  Cu  Cu0  1  0.00000000  0.00000000  0.00000000  1
  Au  Au1  1  0.50000000  0.50000000  0.50000000  1
# generated using pymatgen
data_ID_46
_symmetry_space_group_name_H-M   P4/mmm
_cell_length_a   8.32855062
_cell_length_b   8.32855062
_cell_length_c   2.62222727
_cell_angle_alpha   90.00000000
_cell_angle_beta   90.00000000
_cell_angle_gamma   90.00000000
_symmetry_Int_Tables_number   123
_chemical_formula_structural   CuAu
_cell_volume   181.89015373
_cell_formula_units_Z   4
loop_
 _symmetry_equiv_pos_site_id
 _symmetry_equiv_pos_as_xyz
  1  'x, y, z'
  2  '-x, -y, -z'
  3  '-y, x, z'
  4  'y, -x, -z'
  5  '-x, -y, z'
  6  'x, y, -z'
  7  'y, -x, z'
  8  '-y, x, -z'
  9  'x, -y, -z'
  10  '-x, y, z'
  11  '-y, -x, -z'
  12  'y, x, z'
  13  '-x, y, -z'
  14  'x, -y, z'
  15  'y, x, -z'
  16  '-y, -x, z'
loop_
 _atom_site_type_symbol
 _atom_site_label
 _atom_site_symmetry_multiplicity
 _atom_site_fract_x
 _atom_site_fract_y
 _atom_site_fract_z
 _atom_site_occupancy
  Cu  Cu0  4  0.35375690  0.35375690  0.50000000  1
  Au  Au1  4  0.16190976  0.16190976  0.00000000  1
# generated using pymatgen
data_ID_47
_symmetry_space_group_name_H-M   P4_222
_cell_length_a   7.16151387
_cell_length_b   7.16151387
_cell_length_c   9.03243768
_cell_angle_alpha   90.00000000
_cell_angle_beta   90.00000000
_cell_angle_gamma   90.00000000
_symmetry_Int_Tables_number   93
_chemical_formula_structural   CuAu
_cell_volume   463.24916822
_cell_formula_units_Z   8
loop_
 _symmetry_equiv_pos_site_id
 _symmetry_equiv_pos_as_xyz
  1  'x, y, z'
  2  '-y, x, z+1/2'
  3  '-x, -y, z'
  4  'y, -x, z+1/2'
  5  'x, -y, -z'
  6  '-y, -x, -z+1/2'
  7  '-x, y, -z'
  8  'y, x, -z+1/2'
loop_
 _atom_site_type_symbol
 _atom_site_label
 _atom_site_symmetry_multiplicity
 _atom_site_fract_x
 _atom_site_fract_y
 _atom_site_fract_z
 _atom_site_occupancy
  Cu  Cu0  4  0.26181497  0.26181497  0.25000000  1
  Cu  Cu1  2  0.00000000  0.50000000  0.00000000  1
  Cu  Cu2  2  0.00000000  0.50000000  0.50000000  1
  Au  Au3  4  0.00000000  0.17679283  0.00000000  1
  Au  Au4  2  0.00000000  0.00000000  0.25000000  1
  Au  Au5  2  0.50000000  0.50000000  0.25000000  1
# generated using pymatgen
data_ID_48
_symmetry_space_group_name_H-M   P4/mmm
_cell_length_a   2.78978981
_cell_length_b   2.78978981
_cell_length_c   3.59568362
_cell_angle_alpha   90.00000000
_cell_angle_beta   90.00000000
_cell_angle_gamma   90.00000000
_symmetry_Int_Tables_number   123
_chemical_formula_structural   CuAu
_cell_volume   27.98494375
_cell_formula_units_Z   1
loop_
 _symmetry_equiv_pos_site_id
 _symmetry_equiv_pos_as_xyz
  1  'x, y, z'
  2  '-x, -y, -z'
  3  '-y, x, z'
  4  'y, -x, -z'
  5  '-x, -y, z'
  6  'x, y, -z'
  7  'y, -x, z'
  8  '-y, x, -z'
  9  'x, -y, -z'
  10  '-x, y, z'
  11  '-y, -x, -z'
  12  'y, x, z'
  13  '-x, y, -z'
  14  'x, -y, z'
  15  'y, x, -z'
  16  '-y, -x, z'
loop_
 _atom_site_type_symbol
 _atom_site_label
 _atom_site_symmetry_multiplicity
 _atom_site_fract_x
 _atom_site_fract_y
 _atom_site_fract_z
 _atom_site_occupancy
  Cu  Cu0  1  0.00000000  0.00000000  0.00000000  1
  Au  Au1  1  0.50000000  0.50000000  0.50000000  1
# generated using pymatgen
data_ID_49
_symmetry_space_group_name_H-M   Pm-3m
_cell_length_a   6.61175984
_cell_length_b   6.61175984
_cell_length_c   6.61175984
_cell_angle_alpha   90.00000000
_cell_angle_beta   90.00000000
_cell_angle_gamma   90.00000000
_symmetry_Int_Tables_number   221
_chemical_formula_structural   CuAu
_cell_volume   289.03551603
_cell_formula_units_Z   8
loop_
 _symmetry_equiv_pos_site_id
 _symmetry_equiv_pos_as_xyz
  1  'x, y, z'
  2  '-x, -y, -z'
  3  '-y, x, z'
  4  'y, -x, -z'
  5  '-x, -y, z'
  6  'x, y, -z'
  7  'y, -x, z'
  8  '-y, x, -z'
  9  'x, -y, -z'
  10  '-x, y, z'
  11  '-y, -x, -z'
  12  'y, x, z'
  13  '-x, y, -z'
  14  'x, -y, z'
  15  'y, x, -z'
  16  '-y, -x, z'
  17  'z, x, y'
  18  '-z, -x, -y'
  19  'z, -y, x'
  20  '-z, y, -x'
  21  'z, -x, -y'
  22  '-z, x, y'
  23  'z, y, -x'
  24  '-z, -y, x'
  25  '-z, x, -y'
  26  'z, -x, y'
  27  '-z, -y, -x'
  28  'z, y, x'
  29  '-z, -x, y'
  30  'z, x, -y'
  31  '-z, y, x'
  32  'z, -y, -x'
  33  'y, z, x'
  34  '-y, -z, -x'
  35  'x, z, -y'
  36  '-x, -z, y'
  37  '-y, z, -x'
  38  'y, -z, x'
  39  '-x, z, y'
  40  'x, -z, -y'
  41  '-y, -z, x'
  42  'y, z, -x'
  43  '-x, -z, -y'
  44  'x, z, y'
  45  'y, -z, -x'
  46  '-y, z, x'
  47  'x, -z, y'
  48  '-x, z, -y'
loop_
 _atom_site_type_symbol
 _atom_site_label
 _atom_site_symmetry_multiplicity
 _atom_site_fract_x
 _atom_site_fract_y
 _atom_site_fract_z
 _atom_site_occupancy
  Cu  Cu0  6  0.00000000  0.00000000  0.33206424  1
  Cu  Cu1  1  0.00000000  0.00000000  0.00000000  1
  Cu  Cu2  1  0.50000000  0.50000000  0.50000000  1
  Au  Au3  8  0.27845431  0.27845431  0.27845431  1
# generated using pymatgen
data_ID_50
_symmetry_space_group_name_H-M   P4_2/mnm
_cell_length_a   9.29922133
_cell_length_b   9.29922133
_cell_length_c   2.78148129
_cell_angle_alpha   90.00000000
_cell_angle_beta   90.00000000
_cell_angle_gamma   90.00000000
_symmetry_Int_Tables_number   136
_chemical_formula_structural   CuAu
_cell_volume   240.53003343
_cell_formula_units_Z   8
loop_
 _symmetry_equiv_pos_site_id
 _symmetry_equiv_pos_as_xyz
  1  'x, y, z'
  2  '-x, -y, -z'
  3  '-y+1/2, x+1/2, z+1/2'
  4  'y+1/2, -x+1/2, -z+1/2'
  5  '-x, -y, z'
  6  'x, y, -z'
  7  'y+1/2, -x+1/2, z+1/2'
  8  '-y+1/2, x+1/2, -z+1/2'
  9  'x+1/2, -y+1/2, -z+1/2'
  10  '-x+1/2, y+1/2, z+1/2'
  11  '-y, -x, -z'
  12  'y, x, z'
  13  '-x+1/2, y+1/2, -z+1/2'
  14  'x+1/2, -y+1/2, z+1/2'
  15  'y, x, -z'
  16  '-y, -x, z'
loop_
 _atom_site_type_symbol
 _atom_site_label
 _atom_site_symmetry_multiplicity
 _atom_site_fract_x
 _atom_site_fract_y
 _atom_site_fract_z
 _atom_site_occupancy
  Cu  Cu0  4  0.09214670  0.90785330  0.00000000  1
  Cu  Cu1  4  0.18269302  0.18269302  0.00000000  1
  Au  Au2  8  0.02672656  0.68209567  0.50000000  1
# generated using pymatgen
data_ID_51
_symmetry_space_group_name_H-M   I4_1/acd
_cell_length_a   9.62596541
_cell_length_b   9.62596541
_cell_length_c   5.22721610
_cell_angle_alpha   90.00000000
_cell_angle_beta   90.00000000
_cell_angle_gamma   90.00000000
_symmetry_Int_Tables_number   142
_chemical_formula_structural   CuAu
_cell_volume   484.34971452
_cell_formula_units_Z   16
loop_
 _symmetry_equiv_pos_site_id
 _symmetry_equiv_pos_as_xyz
  1  'x, y, z'
  2  '-y, x+1/2, z+1/4'
  3  '-x+1/2, -y+1/2, z+1/2'
  4  'y+1/2, -x, z+3/4'
  5  'x+1/2, -y, -z+1/4'
  6  '-y+1/2, -x+1/2, -z'
  7  '-x, y+1/2, -z+3/4'
  8  'y, x, -z+1/2'
  9  '-x, -y+1/2, -z+1/4'
  10  'y, -x, -z'
  11  'x+1/2, y, -z+3/4'
  12  '-y+1/2, x+1/2, -z+1/2'
  13  '-x+1/2, y+1/2, z'
  14  'y+1/2, x, z+1/4'
  15  'x, -y, z+1/2'
  16  '-y, -x+1/2, z+3/4'
  17  'x+1/2, y+1/2, z+1/2'
  18  '-y+1/2, x, z+3/4'
  19  '-x, -y, z'
  20  'y, -x+1/2, z+1/4'
  21  'x, -y+1/2, -z+3/4'
  22  '-y, -x, -z+1/2'
  23  '-x+1/2, y, -z+1/4'
  24  'y+1/2, x+1/2, -z'
  25  '-x+1/2, -y, -z+3/4'
  26  'y+1/2, -x+1/2, -z+1/2'
  27  'x, y+1/2, -z+1/4'
  28  '-y, x, -z'
  29  '-x, y, z+1/2'
  30  'y, x+1/2, z+3/4'
  31  'x+1/2, -y+1/2, z'
  32  '-y+1/2, -x, z+1/4'
loop_
 _atom_site_type_symbol
 _atom_site_label
 _atom_site_symmetry_multiplicity
 _atom_site_fract_x
 _atom_site_fract_y
 _atom_site_fract_z
 _atom_site_occupancy
  Cu  Cu0  16  0.14178249  0.14178249  0.25000000  1
  Au  Au1  16  0.12272963  0.37727037  0.00000000  1
# generated using pymatgen
data_ID_52
_symmetry_space_group_name_H-M   P4/mmm
_cell_length_a   2.78974842
_cell_length_b   2.78974842
_cell_length_c   3.59550112
_cell_angle_alpha   90.00000000
_cell_angle_beta   90.00000000
_cell_angle_gamma   90.00000000
_symmetry_Int_Tables_number   123
_chemical_formula_structural   CuAu
_cell_volume   27.98269307
_cell_formula_units_Z   1
loop_
 _symmetry_equiv_pos_site_id
 _symmetry_equiv_pos_as_xyz
  1  'x, y, z'
  2  '-x, -y, -z'
  3  '-y, x, z'
  4  'y, -x, -z'
  5  '-x, -y, z'
  6  'x, y, -z'
  7  'y, -x, z'
  8  '-y, x, -z'
  9  'x, -y, -z'
  10  '-x, y, z'
  11  '-y, -x, -z'
  12  'y, x, z'
  13  '-x, y, -z'
  14  'x, -y, z'
  15  'y, x, -z'
  16  '-y, -x, z'
loop_
 _atom_site_type_symbol
 _atom_site_label
 _atom_site_symmetry_multiplicity
 _atom_site_fract_x
 _atom_site_fract_y
 _atom_site_fract_z
 _atom_site_occupancy
  Cu  Cu0  1  0.00000000  0.00000000  0.00000000  1
  Au  Au1  1  0.50000000  0.50000000  0.50000000  1
# generated using pymatgen
data_ID_53
_symmetry_space_group_name_H-M   I4_1md
_cell_length_a   10.06520151
_cell_length_b   10.06520151
_cell_length_c   5.20291587
_cell_angle_alpha   90.00000000
_cell_angle_beta   90.00000000
_cell_angle_gamma   90.00000000
_symmetry_Int_Tables_number   109
_chemical_formula_structural   CuAu
_cell_volume   527.09846457
_cell_formula_units_Z   16
loop_
 _symmetry_equiv_pos_site_id
 _symmetry_equiv_pos_as_xyz
  1  'x, y, z'
  2  '-y, x+1/2, z+1/4'
  3  '-x+1/2, -y+1/2, z+1/2'
  4  'y+1/2, -x, z+3/4'
  5  '-x, y, z'
  6  'y, x+1/2, z+1/4'
  7  'x+1/2, -y+1/2, z+1/2'
  8  '-y+1/2, -x, z+3/4'
  9  'x+1/2, y+1/2, z+1/2'
  10  '-y+1/2, x, z+3/4'
  11  '-x, -y, z'
  12  'y, -x+1/2, z+1/4'
  13  '-x+1/2, y+1/2, z+1/2'
  14  'y+1/2, x, z+3/4'
  15  'x, -y, z'
  16  '-y, -x+1/2, z+1/4'
loop_
 _atom_site_type_symbol
 _atom_site_label
 _atom_site_symmetry_multiplicity
 _atom_site_fract_x
 _atom_site_fract_y
 _atom_site_fract_z
 _atom_site_occupancy
  Cu  Cu0  16  0.11799842  0.20258206  0.75130439  1
  Au  Au1  8  0.00000000  0.23703019  0.24806770  1
  Au  Au2  4  0.00000000  0.00000000  0.50124743  1
  Au  Au3  4  0.00000000  0.00000000  0.99997845  1
# generated using pymatgen
data_ID_54
_symmetry_space_group_name_H-M   P-6m2
_cell_length_a   2.77274251
_cell_length_b   2.77274251
_cell_length_c   4.30943735
_cell_angle_alpha   90.00000000
_cell_angle_beta   90.00000000
_cell_angle_gamma   120.00000000
_symmetry_Int_Tables_number   187
_chemical_formula_structural   CuAu
_cell_volume   28.69262516
_cell_formula_units_Z   1
loop_
 _symmetry_equiv_pos_site_id
 _symmetry_equiv_pos_as_xyz
  1  'x, y, z'
  2  '-x+y, -x, -z'
  3  '-y, x-y, z'
  4  'x, y, -z'
  5  '-x+y, -x, z'
  6  '-y, x-y, -z'
  7  '-y, -x, -z'
  8  'x, x-y, z'
  9  '-x+y, y, -z'
  10  '-y, -x, z'
  11  'x, x-y, -z'
  12  '-x+y, y, z'
loop_
 _atom_site_type_symbol
 _atom_site_label
 _atom_site_symmetry_multiplicity
 _atom_site_fract_x
 _atom_site_fract_y
 _atom_site_fract_z
 _atom_site_occupancy
  Cu  Cu0  1  0.33333333  0.66666667  0.50000000  1
  Au  Au1  1  0.00000000  0.00000000  0.00000000  1
# generated using pymatgen
data_ID_55
_symmetry_space_group_name_H-M   Pnnm
_cell_length_a   6.59614441
_cell_length_b   8.09568351
_cell_length_c   5.28847259
_cell_angle_alpha   90.00000000
_cell_angle_beta   90.00000000
_cell_angle_gamma   90.00000000
_symmetry_Int_Tables_number   58
_chemical_formula_structural   CuAu
_cell_volume   282.40600983
_cell_formula_units_Z   8
loop_
 _symmetry_equiv_pos_site_id
 _symmetry_equiv_pos_as_xyz
  1  'x, y, z'
  2  '-x, -y, -z'
  3  '-x, -y, z'
  4  'x, y, -z'
  5  'x+1/2, -y+1/2, -z+1/2'
  6  '-x+1/2, y+1/2, z+1/2'
  7  '-x+1/2, y+1/2, -z+1/2'
  8  'x+1/2, -y+1/2, z+1/2'
loop_
 _atom_site_type_symbol
 _atom_site_label
 _atom_site_symmetry_multiplicity
 _atom_site_fract_x
 _atom_site_fract_y
 _atom_site_fract_z
 _atom_site_occupancy
  Cu  Cu0  8  0.16126903  0.91090469  0.25306462  1
  Au  Au1  4  0.15217767  0.18467844  0.00000000  1
  Au  Au2  2  0.00000000  0.50000000  0.00000000  1
  Au  Au3  2  0.00000000  0.50000000  0.50000000  1
# generated using pymatgen
data_ID_56
_symmetry_space_group_name_H-M   P-62c
_cell_length_a   7.50203453
_cell_length_b   7.50203453
_cell_length_c   4.86004004
_cell_angle_alpha   90.00000000
_cell_angle_beta   90.00000000
_cell_angle_gamma   120.00000000
_symmetry_Int_Tables_number   190
_chemical_formula_structural   CuAu
_cell_volume   236.88011040
_cell_formula_units_Z   8
loop_
 _symmetry_equiv_pos_site_id
 _symmetry_equiv_pos_as_xyz
  1  'x, y, z'
  2  '-x+y, -x, -z+1/2'
  3  '-y, x-y, z'
  4  'x, y, -z+1/2'
  5  '-x+y, -x, z'
  6  '-y, x-y, -z+1/2'
  7  'y, x, z+1/2'
  8  '-x, -x+y, -z'
  9  'x-y, -y, z+1/2'
  10  'y, x, -z'
  11  '-x, -x+y, z+1/2'
  12  'x-y, -y, -z'
loop_
 _atom_site_type_symbol
 _atom_site_label
 _atom_site_symmetry_multiplicity
 _atom_site_fract_x
 _atom_site_fract_y
 _atom_site_fract_z
 _atom_site_occupancy
  Cu  Cu0  6  0.06323194  0.32981290  0.25000000  1
  Cu  Cu1  2  0.33333333  0.66666667  0.25000000  1
  Au  Au2  6  0.11075848  0.66542615  0.75000000  1
  Au  Au3  2  0.00000000  0.00000000  0.00000000  1
# generated using pymatgen
data_ID_57
_symmetry_space_group_name_H-M   P4_2/nnm
_cell_length_a   4.73613813
_cell_length_b   4.73613813
_cell_length_c   17.35808475
_cell_angle_alpha   90.00000000
_cell_angle_beta   90.00000000
_cell_angle_gamma   90.00000000
_symmetry_Int_Tables_number   134
_chemical_formula_structural   CuAu
_cell_volume   389.35927505
_cell_formula_units_Z   8
loop_
 _symmetry_equiv_pos_site_id
 _symmetry_equiv_pos_as_xyz
  1  'x, y, z'
  2  '-y+1/2, x+1/2, z+1/2'
  3  '-x, -y, z'
  4  'y+1/2, -x+1/2, z+1/2'
  5  'x, -y, -z'
  6  '-y+1/2, -x+1/2, -z+1/2'
  7  '-x, y, -z'
  8  'y+1/2, x+1/2, -z+1/2'
  9  '-x+1/2, -y+1/2, -z+1/2'
  10  'y, -x, -z'
  11  'x+1/2, y+1/2, -z+1/2'
  12  '-y, x, -z'
  13  '-x+1/2, y+1/2, z+1/2'
  14  'y, x, z'
  15  'x+1/2, -y+1/2, z+1/2'
  16  '-y, -x, z'
loop_
 _atom_site_type_symbol
 _atom_site_label
 _atom_site_symmetry_multiplicity
 _atom_site_fract_x
 _atom_site_fract_y
 _atom_site_fract_z
 _atom_site_occupancy
  Cu  Cu0  4  0.00000000  0.50000000  0.00000000  1
  Cu  Cu1  2  0.00000000  0.00000000  0.00000000  1
  Cu  Cu2  2  0.00000000  0.00000000  0.50000000  1
  Au  Au3  4  0.00000000  0.00000000  0.35844683  1
  Au  Au4  4  0.25000000  0.25000000  0.75000000  1
# generated using pymatgen
data_ID_58
_symmetry_space_group_name_H-M   Ama2
_cell_length_a   11.21734420
_cell_length_b   6.35808805
_cell_length_c   6.47221789
_cell_angle_alpha   90.00000000
_cell_angle_beta   90.00000000
_cell_angle_gamma   90.00000000
_symmetry_Int_Tables_number   40
_chemical_formula_structural   CuAu
_cell_volume   461.60415955
_cell_formula_units_Z   16
loop_
 _symmetry_equiv_pos_site_id
 _symmetry_equiv_pos_as_xyz
  1  'x, y, z'
  2  '-x, -y, z'
  3  '-x+1/2, y, z'
  4  'x+1/2, -y, z'
  5  'x, y+1/2, z+1/2'
  6  '-x, -y+1/2, z+1/2'
  7  '-x+1/2, y+1/2, z+1/2'
  8  'x+1/2, -y+1/2, z+1/2'
loop_
 _atom_site_type_symbol
 _atom_site_label
 _atom_site_symmetry_multiplicity
 _atom_site_fract_x
 _atom_site_fract_y
 _atom_site_fract_z
 _atom_site_occupancy
  Cu  Cu0  8  0.12819063  0.28002167  0.36481801  1
  Cu  Cu1  4  0.00000000  0.00000000  0.55614446  1
  Cu  Cu2  4  0.25000000  0.47427545  0.06529097  1
  Au  Au3  8  0.12250650  0.19850530  0.83620896  1
  Au  Au4  4  0.00000000  0.00000000  0.14142919  1
  Au  Au5  4  0.25000000  0.01067364  0.14513094  1
# generated using pymatgen
data_ID_59
_symmetry_space_group_name_H-M   Cccm
_cell_length_a   7.05952537
_cell_length_b   7.34390492
_cell_length_c   4.69493367
_cell_angle_alpha   90.00000000
_cell_angle_beta   90.00000000
_cell_angle_gamma   90.00000000
_symmetry_Int_Tables_number   66
_chemical_formula_structural   CuAu
_cell_volume   243.40640917
_cell_formula_units_Z   8
loop_
 _symmetry_equiv_pos_site_id
 _symmetry_equiv_pos_as_xyz
  1  'x, y, z'
  2  '-x, -y, -z'
  3  '-x, -y, z'
  4  'x, y, -z'
  5  'x, -y, -z+1/2'
  6  '-x, y, z+1/2'
  7  '-x, y, -z+1/2'
  8  'x, -y, z+1/2'
  9  'x+1/2, y+1/2, z'
  10  '-x+1/2, -y+1/2, -z'
  11  '-x+1/2, -y+1/2, z'
  12  'x+1/2, y+1/2, -z'
  13  'x+1/2, -y+1/2, -z+1/2'
  14  '-x+1/2, y+1/2, z+1/2'
  15  '-x+1/2, y+1/2, -z+1/2'
  16  'x+1/2, -y+1/2, z+1/2'
loop_
 _atom_site_type_symbol
 _atom_site_label
 _atom_site_symmetry_multiplicity
 _atom_site_fract_x
 _atom_site_fract_y
 _atom_site_fract_z
 _atom_site_occupancy
  Cu  Cu0  4  0.00000000  0.50000000  0.00000000  1
  Cu  Cu1  4  0.25000000  0.25000000  0.00000000  1
  Au  Au2  8  0.12975368  0.12034426  0.50000000  1
# generated using pymatgen
data_ID_60
_symmetry_space_group_name_H-M   I4/mmm
_cell_length_a   11.19119552
_cell_length_b   11.19119552
_cell_length_c   5.25226276
_cell_angle_alpha   90.00000000
_cell_angle_beta   90.00000000
_cell_angle_gamma   90.00000000
_symmetry_Int_Tables_number   139
_chemical_formula_structural   CuAu
_cell_volume   657.80839473
_cell_formula_units_Z   16
loop_
 _symmetry_equiv_pos_site_id
 _symmetry_equiv_pos_as_xyz
  1  'x, y, z'
  2  '-x, -y, -z'
  3  '-y, x, z'
  4  'y, -x, -z'
  5  '-x, -y, z'
  6  'x, y, -z'
  7  'y, -x, z'
  8  '-y, x, -z'
  9  'x, -y, -z'
  10  '-x, y, z'
  11  '-y, -x, -z'
  12  'y, x, z'
  13  '-x, y, -z'
  14  'x, -y, z'
  15  'y, x, -z'
  16  '-y, -x, z'
  17  'x+1/2, y+1/2, z+1/2'
  18  '-x+1/2, -y+1/2, -z+1/2'
  19  '-y+1/2, x+1/2, z+1/2'
  20  'y+1/2, -x+1/2, -z+1/2'
  21  '-x+1/2, -y+1/2, z+1/2'
  22  'x+1/2, y+1/2, -z+1/2'
  23  'y+1/2, -x+1/2, z+1/2'
  24  '-y+1/2, x+1/2, -z+1/2'
  25  'x+1/2, -y+1/2, -z+1/2'
  26  '-x+1/2, y+1/2, z+1/2'
  27  '-y+1/2, -x+1/2, -z+1/2'
  28  'y+1/2, x+1/2, z+1/2'
  29  '-x+1/2, y+1/2, -z+1/2'
  30  'x+1/2, -y+1/2, z+1/2'
  31  'y+1/2, x+1/2, -z+1/2'
  32  '-y+1/2, -x+1/2, z+1/2'
loop_
 _atom_site_type_symbol
 _atom_site_label
 _atom_site_symmetry_multiplicity
 _atom_site_fract_x
 _atom_site_fract_y
 _atom_site_fract_z
 _atom_site_occupancy
  Cu  Cu0  16  0.14218649  0.35781351  0.25000000  1
  Au  Au1  8  0.16438656  0.16438656  0.50000000  1
  Au  Au2  4  0.00000000  0.50000000  0.00000000  1
  Au  Au3  2  0.00000000  0.00000000  0.00000000  1
  Au  Au4  2  0.00000000  0.00000000  0.50000000  1
# generated using pymatgen
data_ID_61
_symmetry_space_group_name_H-M   P4/mmm
_cell_length_a   4.92672179
_cell_length_b   4.92672179
_cell_length_c   2.61639602
_cell_angle_alpha   90.00000000
_cell_angle_beta   90.00000000
_cell_angle_gamma   90.00000000
_symmetry_Int_Tables_number   123
_chemical_formula_structural   CuAu
_cell_volume   63.50670134
_cell_formula_units_Z   2
loop_
 _symmetry_equiv_pos_site_id
 _symmetry_equiv_pos_as_xyz
  1  'x, y, z'
  2  '-x, -y, -z'
  3  '-y, x, z'
  4  'y, -x, -z'
  5  '-x, -y, z'
  6  'x, y, -z'
  7  'y, -x, z'
  8  '-y, x, -z'
  9  'x, -y, -z'
  10  '-x, y, z'
  11  '-y, -x, -z'
  12  'y, x, z'
  13  '-x, y, -z'
  14  'x, -y, z'
  15  'y, x, -z'
  16  '-y, -x, z'
loop_
 _atom_site_type_symbol
 _atom_site_label
 _atom_site_symmetry_multiplicity
 _atom_site_fract_x
 _atom_site_fract_y
 _atom_site_fract_z
 _atom_site_occupancy
  Cu  Cu0  1  0.00000000  0.00000000  0.50000000  1
  Cu  Cu1  1  0.50000000  0.50000000  0.00000000  1
  Au  Au2  2  0.00000000  0.50000000  0.50000000  1
# generated using pymatgen
data_ID_62
_symmetry_space_group_name_H-M   I4/mcm
_cell_length_a   8.59395939
_cell_length_b   8.59395939
_cell_length_c   14.03115774
_cell_angle_alpha   90.00000000
_cell_angle_beta   90.00000000
_cell_angle_gamma   90.00000000
_symmetry_Int_Tables_number   140
_chemical_formula_structural   CuAu
_cell_volume   1036.28712275
_cell_formula_units_Z   16
loop_
 _symmetry_equiv_pos_site_id
 _symmetry_equiv_pos_as_xyz
  1  'x, y, z'
  2  '-x, -y, -z'
  3  '-y, x, z'
  4  'y, -x, -z'
  5  '-x, -y, z'
  6  'x, y, -z'
  7  'y, -x, z'
  8  '-y, x, -z'
  9  'x, -y, -z+1/2'
  10  '-x, y, z+1/2'
  11  '-y, -x, -z+1/2'
  12  'y, x, z+1/2'
  13  '-x, y, -z+1/2'
  14  'x, -y, z+1/2'
  15  'y, x, -z+1/2'
  16  '-y, -x, z+1/2'
  17  'x+1/2, y+1/2, z+1/2'
  18  '-x+1/2, -y+1/2, -z+1/2'
  19  '-y+1/2, x+1/2, z+1/2'
  20  'y+1/2, -x+1/2, -z+1/2'
  21  '-x+1/2, -y+1/2, z+1/2'
  22  'x+1/2, y+1/2, -z+1/2'
  23  'y+1/2, -x+1/2, z+1/2'
  24  '-y+1/2, x+1/2, -z+1/2'
  25  'x+1/2, -y+1/2, -z'
  26  '-x+1/2, y+1/2, z'
  27  '-y+1/2, -x+1/2, -z'
  28  'y+1/2, x+1/2, z'
  29  '-x+1/2, y+1/2, -z'
  30  'x+1/2, -y+1/2, z'
  31  'y+1/2, x+1/2, -z'
  32  '-y+1/2, -x+1/2, z'
loop_
 _atom_site_type_symbol
 _atom_site_label
 _atom_site_symmetry_multiplicity
 _atom_site_fract_x
 _atom_site_fract_y
 _atom_site_fract_z
 _atom_site_occupancy
  Cu  Cu0  16  0.10038398  0.18504221  0.50000000  1
  Au  Au1  8  0.00000000  0.50000000  0.15995663  1
  Au  Au2  8  0.11191871  0.38808129  0.00000000  1
# generated using pymatgen
data_ID_63
_symmetry_space_group_name_H-M   F-43m
_cell_length_a   10.21992073
_cell_length_b   10.21992073
_cell_length_c   10.21992073
_cell_angle_alpha   90.00000000
_cell_angle_beta   90.00000000
_cell_angle_gamma   90.00000000
_symmetry_Int_Tables_number   216
_chemical_formula_structural   CuAu
_cell_volume   1067.43781023
_cell_formula_units_Z   32
loop_
 _symmetry_equiv_pos_site_id
 _symmetry_equiv_pos_as_xyz
  1  'x, y, z'
  2  'y, -x, -z'
  3  '-x, -y, z'
  4  '-y, x, -z'
  5  'x, -y, -z'
  6  'y, x, z'
  7  '-x, y, -z'
  8  '-y, -x, z'
  9  'z, x, y'
  10  '-z, y, -x'
  11  'z, -x, -y'
  12  '-z, -y, x'
  13  '-z, x, -y'
  14  'z, y, x'
  15  '-z, -x, y'
  16  'z, -y, -x'
  17  'y, z, x'
  18  '-x, -z, y'
  19  '-y, z, -x'
  20  'x, -z, -y'
  21  '-y, -z, x'
  22  'x, z, y'
  23  'y, -z, -x'
  24  '-x, z, -y'
  25  'x+1/2, y+1/2, z'
  26  'y+1/2, -x+1/2, -z'
  27  '-x+1/2, -y+1/2, z'
  28  '-y+1/2, x+1/2, -z'
  29  'x+1/2, -y+1/2, -z'
  30  'y+1/2, x+1/2, z'
  31  '-x+1/2, y+1/2, -z'
  32  '-y+1/2, -x+1/2, z'
  33  'z+1/2, x+1/2, y'
  34  '-z+1/2, y+1/2, -x'
  35  'z+1/2, -x+1/2, -y'
  36  '-z+1/2, -y+1/2, x'
  37  '-z+1/2, x+1/2, -y'
  38  'z+1/2, y+1/2, x'
  39  '-z+1/2, -x+1/2, y'
  40  'z+1/2, -y+1/2, -x'
  41  'y+1/2, z+1/2, x'
  42  '-x+1/2, -z+1/2, y'
  43  '-y+1/2, z+1/2, -x'
  44  'x+1/2, -z+1/2, -y'
  45  '-y+1/2, -z+1/2, x'
  46  'x+1/2, z+1/2, y'
  47  'y+1/2, -z+1/2, -x'
  48  '-x+1/2, z+1/2, -y'
  49  'x+1/2, y, z+1/2'
  50  'y+1/2, -x, -z+1/2'
  51  '-x+1/2, -y, z+1/2'
  52  '-y+1/2, x, -z+1/2'
  53  'x+1/2, -y, -z+1/2'
  54  'y+1/2, x, z+1/2'
  55  '-x+1/2, y, -z+1/2'
  56  '-y+1/2, -x, z+1/2'
  57  'z+1/2, x, y+1/2'
  58  '-z+1/2, y, -x+1/2'
  59  'z+1/2, -x, -y+1/2'
  60  '-z+1/2, -y, x+1/2'
  61  '-z+1/2, x, -y+1/2'
  62  'z+1/2, y, x+1/2'
  63  '-z+1/2, -x, y+1/2'
  64  'z+1/2, -y, -x+1/2'
  65  'y+1/2, z, x+1/2'
  66  '-x+1/2, -z, y+1/2'
  67  '-y+1/2, z, -x+1/2'
  68  'x+1/2, -z, -y+1/2'
  69  '-y+1/2, -z, x+1/2'
  70  'x+1/2, z, y+1/2'
  71  'y+1/2, -z, -x+1/2'
  72  '-x+1/2, z, -y+1/2'
  73  'x, y+1/2, z+1/2'
  74  'y, -x+1/2, -z+1/2'
  75  '-x, -y+1/2, z+1/2'
  76  '-y, x+1/2, -z+1/2'
  77  'x, -y+1/2, -z+1/2'
  78  'y, x+1/2, z+1/2'
  79  '-x, y+1/2, -z+1/2'
  80  '-y, -x+1/2, z+1/2'
  81  'z, x+1/2, y+1/2'
  82  '-z, y+1/2, -x+1/2'
  83  'z, -x+1/2, -y+1/2'
  84  '-z, -y+1/2, x+1/2'
  85  '-z, x+1/2, -y+1/2'
  86  'z, y+1/2, x+1/2'
  87  '-z, -x+1/2, y+1/2'
  88  'z, -y+1/2, -x+1/2'
  89  'y, z+1/2, x+1/2'
  90  '-x, -z+1/2, y+1/2'
  91  '-y, z+1/2, -x+1/2'
  92  'x, -z+1/2, -y+1/2'
  93  '-y, -z+1/2, x+1/2'
  94  'x, z+1/2, y+1/2'
  95  'y, -z+1/2, -x+1/2'
  96  '-x, z+1/2, -y+1/2'
loop_
 _atom_site_type_symbol
 _atom_site_label
 _atom_site_symmetry_multiplicity
 _atom_site_fract_x
 _atom_site_fract_y
 _atom_site_fract_z
 _atom_site_occupancy
  Cu  Cu0  24  0.00459876  0.25000000  0.75000000  1
  Cu  Cu1  4  0.00000000  0.00000000  0.50000000  1
  Cu  Cu2  4  0.25000000  0.25000000  0.75000000  1
  Au  Au3  24  0.00000000  0.00000000  0.25836454  1
  Au  Au4  4  0.00000000  0.00000000  0.00000000  1
  Au  Au5  4  0.25000000  0.25000000  0.25000000  1
# generated using pymatgen
data_ID_64
_symmetry_space_group_name_H-M   P-62c
_cell_length_a   7.22280622
_cell_length_b   7.22280622
_cell_length_c   5.43051613
_cell_angle_alpha   90.00000000
_cell_angle_beta   90.00000000
_cell_angle_gamma   120.00000000
_symmetry_Int_Tables_number   190
_chemical_formula_structural   CuAu
_cell_volume   245.34864645
_cell_formula_units_Z   8
loop_
 _symmetry_equiv_pos_site_id
 _symmetry_equiv_pos_as_xyz
  1  'x, y, z'
  2  '-x+y, -x, -z+1/2'
  3  '-y, x-y, z'
  4  'x, y, -z+1/2'
  5  '-x+y, -x, z'
  6  '-y, x-y, -z+1/2'
  7  'y, x, z+1/2'
  8  '-x, -x+y, -z'
  9  'x-y, -y, z+1/2'
  10  'y, x, -z'
  11  '-x, -x+y, z+1/2'
  12  'x-y, -y, -z'
loop_
 _atom_site_type_symbol
 _atom_site_label
 _atom_site_symmetry_multiplicity
 _atom_site_fract_x
 _atom_site_fract_y
 _atom_site_fract_z
 _atom_site_occupancy
  Cu  Cu0  6  0.03251689  0.66372129  0.75000000  1
  Cu  Cu1  2  0.33333333  0.66666667  0.25000000  1
  Au  Au2  6  0.00000000  0.33884187  0.00000000  1
  Au  Au3  2  0.00000000  0.00000000  0.25000000  1
# generated using pymatgen
data_ID_65
_symmetry_space_group_name_H-M   I4/mmm
_cell_length_a   7.76059128
_cell_length_b   7.76059128
_cell_length_c   3.99911272
_cell_angle_alpha   90.00000000
_cell_angle_beta   90.00000000
_cell_angle_gamma   90.00000000
_symmetry_Int_Tables_number   139
_chemical_formula_structural   CuAu
_cell_volume   240.85367009
_cell_formula_units_Z   8
loop_
 _symmetry_equiv_pos_site_id
 _symmetry_equiv_pos_as_xyz
  1  'x, y, z'
  2  '-x, -y, -z'
  3  '-y, x, z'
  4  'y, -x, -z'
  5  '-x, -y, z'
  6  'x, y, -z'
  7  'y, -x, z'
  8  '-y, x, -z'
  9  'x, -y, -z'
  10  '-x, y, z'
  11  '-y, -x, -z'
  12  'y, x, z'
  13  '-x, y, -z'
  14  'x, -y, z'
  15  'y, x, -z'
  16  '-y, -x, z'
  17  'x+1/2, y+1/2, z+1/2'
  18  '-x+1/2, -y+1/2, -z+1/2'
  19  '-y+1/2, x+1/2, z+1/2'
  20  'y+1/2, -x+1/2, -z+1/2'
  21  '-x+1/2, -y+1/2, z+1/2'
  22  'x+1/2, y+1/2, -z+1/2'
  23  'y+1/2, -x+1/2, z+1/2'
  24  '-y+1/2, x+1/2, -z+1/2'
  25  'x+1/2, -y+1/2, -z+1/2'
  26  '-x+1/2, y+1/2, z+1/2'
  27  '-y+1/2, -x+1/2, -z+1/2'
  28  'y+1/2, x+1/2, z+1/2'
  29  '-x+1/2, y+1/2, -z+1/2'
  30  'x+1/2, -y+1/2, z+1/2'
  31  'y+1/2, x+1/2, -z+1/2'
  32  '-y+1/2, -x+1/2, z+1/2'
loop_
 _atom_site_type_symbol
 _atom_site_label
 _atom_site_symmetry_multiplicity
 _atom_site_fract_x
 _atom_site_fract_y
 _atom_site_fract_z
 _atom_site_occupancy
  Cu  Cu0  8  0.16365161  0.16365161  0.00000000  1
  Au  Au1  8  0.00000000  0.31525493  0.50000000  1
# generated using pymatgen
data_ID_66
_symmetry_space_group_name_H-M   Im-3m
_cell_length_a   11.15801730
_cell_length_b   11.15801730
_cell_length_c   11.15801730
_cell_angle_alpha   90.00000000
_cell_angle_beta   90.00000000
_cell_angle_gamma   90.00000000
_symmetry_Int_Tables_number   229
_chemical_formula_structural   CuAu
_cell_volume   1389.18821849
_cell_formula_units_Z   16
loop_
 _symmetry_equiv_pos_site_id
 _symmetry_equiv_pos_as_xyz
  1  'x, y, z'
  2  '-x, -y, -z'
  3  '-y, x, z'
  4  'y, -x, -z'
  5  '-x, -y, z'
  6  'x, y, -z'
  7  'y, -x, z'
  8  '-y, x, -z'
  9  'x, -y, -z'
  10  '-x, y, z'
  11  '-y, -x, -z'
  12  'y, x, z'
  13  '-x, y, -z'
  14  'x, -y, z'
  15  'y, x, -z'
  16  '-y, -x, z'
  17  'z, x, y'
  18  '-z, -x, -y'
  19  'z, -y, x'
  20  '-z, y, -x'
  21  'z, -x, -y'
  22  '-z, x, y'
  23  'z, y, -x'
  24  '-z, -y, x'
  25  '-z, x, -y'
  26  'z, -x, y'
  27  '-z, -y, -x'
  28  'z, y, x'
  29  '-z, -x, y'
  30  'z, x, -y'
  31  '-z, y, x'
  32  'z, -y, -x'
  33  'y, z, x'
  34  '-y, -z, -x'
  35  'x, z, -y'
  36  '-x, -z, y'
  37  '-y, z, -x'
  38  'y, -z, x'
  39  '-x, z, y'
  40  'x, -z, -y'
  41  '-y, -z, x'
  42  'y, z, -x'
  43  '-x, -z, -y'
  44  'x, z, y'
  45  'y, -z, -x'
  46  '-y, z, x'
  47  'x, -z, y'
  48  '-x, z, -y'
  49  'x+1/2, y+1/2, z+1/2'
  50  '-x+1/2, -y+1/2, -z+1/2'
  51  '-y+1/2, x+1/2, z+1/2'
  52  'y+1/2, -x+1/2, -z+1/2'
  53  '-x+1/2, -y+1/2, z+1/2'
  54  'x+1/2, y+1/2, -z+1/2'
  55  'y+1/2, -x+1/2, z+1/2'
  56  '-y+1/2, x+1/2, -z+1/2'
  57  'x+1/2, -y+1/2, -z+1/2'
  58  '-x+1/2, y+1/2, z+1/2'
  59  '-y+1/2, -x+1/2, -z+1/2'
  60  'y+1/2, x+1/2, z+1/2'
  61  '-x+1/2, y+1/2, -z+1/2'
  62  'x+1/2, -y+1/2, z+1/2'
  63  'y+1/2, x+1/2, -z+1/2'
  64  '-y+1/2, -x+1/2, z+1/2'
  65  'z+1/2, x+1/2, y+1/2'
  66  '-z+1/2, -x+1/2, -y+1/2'
  67  'z+1/2, -y+1/2, x+1/2'
  68  '-z+1/2, y+1/2, -x+1/2'
  69  'z+1/2, -x+1/2, -y+1/2'
  70  '-z+1/2, x+1/2, y+1/2'
  71  'z+1/2, y+1/2, -x+1/2'
  72  '-z+1/2, -y+1/2, x+1/2'
  73  '-z+1/2, x+1/2, -y+1/2'
  74  'z+1/2, -x+1/2, y+1/2'
  75  '-z+1/2, -y+1/2, -x+1/2'
  76  'z+1/2, y+1/2, x+1/2'
  77  '-z+1/2, -x+1/2, y+1/2'
  78  'z+1/2, x+1/2, -y+1/2'
  79  '-z+1/2, y+1/2, x+1/2'
  80  'z+1/2, -y+1/2, -x+1/2'
  81  'y+1/2, z+1/2, x+1/2'
  82  '-y+1/2, -z+1/2, -x+1/2'
  83  'x+1/2, z+1/2, -y+1/2'
  84  '-x+1/2, -z+1/2, y+1/2'
  85  '-y+1/2, z+1/2, -x+1/2'
  86  'y+1/2, -z+1/2, x+1/2'
  87  '-x+1/2, z+1/2, y+1/2'
  88  'x+1/2, -z+1/2, -y+1/2'
  89  '-y+1/2, -z+1/2, x+1/2'
  90  'y+1/2, z+1/2, -x+1/2'
  91  '-x+1/2, -z+1/2, -y+1/2'
  92  'x+1/2, z+1/2, y+1/2'
  93  'y+1/2, -z+1/2, -x+1/2'
  94  '-y+1/2, z+1/2, x+1/2'
  95  'x+1/2, -z+1/2, y+1/2'
  96  '-x+1/2, z+1/2, -y+1/2'
loop_
 _atom_site_type_symbol
 _atom_site_label
 _atom_site_symmetry_multiplicity
 _atom_site_fract_x
 _atom_site_fract_y
 _atom_site_fract_z
 _atom_site_occupancy
  Cu  Cu0  8  0.25000000  0.25000000  0.25000000  1
  Cu  Cu1  6  0.00000000  0.00000000  0.50000000  1
  Cu  Cu2  2  0.00000000  0.00000000  0.00000000  1
  Au  Au3  16  0.12418045  0.12418045  0.12418045  1
# generated using pymatgen
data_ID_67
_symmetry_space_group_name_H-M   Fmmm
_cell_length_a   9.29272539
_cell_length_b   9.83808590
_cell_length_c   10.28143584
_cell_angle_alpha   90.00000000
_cell_angle_beta   90.00000000
_cell_angle_gamma   90.00000000
_symmetry_Int_Tables_number   69
_chemical_formula_structural   CuAu
_cell_volume   939.95591014
_cell_formula_units_Z   32
loop_
 _symmetry_equiv_pos_site_id
 _symmetry_equiv_pos_as_xyz
  1  'x, y, z'
  2  '-x, -y, -z'
  3  '-x, -y, z'
  4  'x, y, -z'
  5  'x, -y, -z'
  6  '-x, y, z'
  7  '-x, y, -z'
  8  'x, -y, z'
  9  'x+1/2, y, z+1/2'
  10  '-x+1/2, -y, -z+1/2'
  11  '-x+1/2, -y, z+1/2'
  12  'x+1/2, y, -z+1/2'
  13  'x+1/2, -y, -z+1/2'
  14  '-x+1/2, y, z+1/2'
  15  '-x+1/2, y, -z+1/2'
  16  'x+1/2, -y, z+1/2'
  17  'x+1/2, y+1/2, z'
  18  '-x+1/2, -y+1/2, -z'
  19  '-x+1/2, -y+1/2, z'
  20  'x+1/2, y+1/2, -z'
  21  'x+1/2, -y+1/2, -z'
  22  '-x+1/2, y+1/2, z'
  23  '-x+1/2, y+1/2, -z'
  24  'x+1/2, -y+1/2, z'
  25  'x, y+1/2, z+1/2'
  26  '-x, -y+1/2, -z+1/2'
  27  '-x, -y+1/2, z+1/2'
  28  'x, y+1/2, -z+1/2'
  29  'x, -y+1/2, -z+1/2'
  30  '-x, y+1/2, z+1/2'
  31  '-x, y+1/2, -z+1/2'
  32  'x, -y+1/2, z+1/2'
loop_
 _atom_site_type_symbol
 _atom_site_label
 _atom_site_symmetry_multiplicity
 _atom_site_fract_x
 _atom_site_fract_y
 _atom_site_fract_z
 _atom_site_occupancy
  Cu  Cu0  16  0.13378188  0.00000000  0.30979111  1
  Cu  Cu1  8  0.00000000  0.12267709  0.50000000  1
  Cu  Cu2  8  0.25000000  0.25000000  0.00000000  1
  Au  Au3  16  0.00000000  0.15915221  0.13962438  1
  Au  Au4  8  0.19138812  0.00000000  0.00000000  1
  Au  Au5  8  0.25000000  0.25000000  0.25000000  1
# generated using pymatgen
data_ID_68
_symmetry_space_group_name_H-M   P6_3
_cell_length_a   4.71984050
_cell_length_b   4.71984050
_cell_length_c   13.34406478
_cell_angle_alpha   90.00000000
_cell_angle_beta   90.00000000
_cell_angle_gamma   120.00000000
_symmetry_Int_Tables_number   173
_chemical_formula_structural   CuAu
_cell_volume   257.43845445
_cell_formula_units_Z   8
loop_
 _symmetry_equiv_pos_site_id
 _symmetry_equiv_pos_as_xyz
  1  'x, y, z'
  2  'x-y, x, z+1/2'
  3  '-y, x-y, z'
  4  '-x, -y, z+1/2'
  5  '-x+y, -x, z'
  6  'y, -x+y, z+1/2'
loop_
 _atom_site_type_symbol
 _atom_site_label
 _atom_site_symmetry_multiplicity
 _atom_site_fract_x
 _atom_site_fract_y
 _atom_site_fract_z
 _atom_site_occupancy
  Cu  Cu0  2  0.00000000  0.00000000  0.16740071  1
  Cu  Cu1  2  0.00000000  0.00000000  0.48705690  1
  Cu  Cu2  2  0.33333333  0.66666667  0.16653257  1
  Cu  Cu3  2  0.33333333  0.66666667  0.98682690  1
  Au  Au4  6  0.00111267  0.66531032  0.32730872  1
  Au  Au5  2  0.33333333  0.66666667  0.50991917  1
# generated using pymatgen
data_ID_69
_symmetry_space_group_name_H-M   Ia-3d
_cell_length_a   10.89908267
_cell_length_b   10.89908267
_cell_length_c   10.89908267
_cell_angle_alpha   90.00000000
_cell_angle_beta   90.00000000
_cell_angle_gamma   90.00000000
_symmetry_Int_Tables_number   230
_chemical_formula_structural   CuAu
_cell_volume   1294.70206287
_cell_formula_units_Z   16
loop_
 _symmetry_equiv_pos_site_id
 _symmetry_equiv_pos_as_xyz
  1  'x, y, z'
  2  '-x, -y, -z'
  3  '-y+1/4, x+3/4, z+1/4'
  4  'y+1/4, -x+3/4, -z+1/4'
  5  '-x+1/2, -y, z+1/2'
  6  'x+1/2, y, -z+1/2'
  7  'y+1/4, -x+1/4, z+3/4'
  8  '-y+1/4, x+1/4, -z+3/4'
  9  'x, -y, -z+1/2'
  10  '-x, y, z+1/2'
  11  '-y+1/4, -x+1/4, -z+1/4'
  12  'y+1/4, x+1/4, z+1/4'
  13  '-x+1/2, y, -z'
  14  'x+1/2, -y, z'
  15  'y+1/4, x+3/4, -z+3/4'
  16  '-y+1/4, -x+3/4, z+3/4'
  17  'z, x, y'
  18  '-z, -x, -y'
  19  'z+1/4, -y+1/4, x+3/4'
  20  '-z+1/4, y+1/4, -x+3/4'
  21  'z+1/2, -x+1/2, -y'
  22  '-z+1/2, x+1/2, y'
  23  'z+3/4, y+1/4, -x+1/4'
  24  '-z+3/4, -y+1/4, x+1/4'
  25  '-z+1/2, x, -y'
  26  'z+1/2, -x, y'
  27  '-z+1/4, -y+1/4, -x+1/4'
  28  'z+1/4, y+1/4, x+1/4'
  29  '-z, -x+1/2, y'
  30  'z, x+1/2, -y'
  31  '-z+3/4, y+1/4, x+3/4'
  32  'z+3/4, -y+1/4, -x+3/4'
  33  'y, z, x'
  34  '-y, -z, -x'
  35  'x+3/4, z+1/4, -y+1/4'
  36  '-x+3/4, -z+1/4, y+1/4'
  37  '-y, z+1/2, -x+1/2'
  38  'y, -z+1/2, x+1/2'
  39  '-x+1/4, z+3/4, y+1/4'
  40  'x+1/4, -z+3/4, -y+1/4'
  41  '-y, -z+1/2, x'
  42  'y, z+1/2, -x'
  43  '-x+1/4, -z+1/4, -y+1/4'
  44  'x+1/4, z+1/4, y+1/4'
  45  'y, -z, -x+1/2'
  46  '-y, z, x+1/2'
  47  'x+3/4, -z+3/4, y+1/4'
  48  '-x+3/4, z+3/4, -y+1/4'
  49  'x+1/2, y+1/2, z+1/2'
  50  '-x+1/2, -y+1/2, -z+1/2'
  51  '-y+3/4, x+1/4, z+3/4'
  52  'y+3/4, -x+1/4, -z+3/4'
  53  '-x, -y+1/2, z'
  54  'x, y+1/2, -z'
  55  'y+3/4, -x+3/4, z+1/4'
  56  '-y+3/4, x+3/4, -z+1/4'
  57  'x+1/2, -y+1/2, -z'
  58  '-x+1/2, y+1/2, z'
  59  '-y+3/4, -x+3/4, -z+3/4'
  60  'y+3/4, x+3/4, z+3/4'
  61  '-x, y+1/2, -z+1/2'
  62  'x, -y+1/2, z+1/2'
  63  'y+3/4, x+1/4, -z+1/4'
  64  '-y+3/4, -x+1/4, z+1/4'
  65  'z+1/2, x+1/2, y+1/2'
  66  '-z+1/2, -x+1/2, -y+1/2'
  67  'z+3/4, -y+3/4, x+1/4'
  68  '-z+3/4, y+3/4, -x+1/4'
  69  'z, -x, -y+1/2'
  70  '-z, x, y+1/2'
  71  'z+1/4, y+3/4, -x+3/4'
  72  '-z+1/4, -y+3/4, x+3/4'
  73  '-z, x+1/2, -y+1/2'
  74  'z, -x+1/2, y+1/2'
  75  '-z+3/4, -y+3/4, -x+3/4'
  76  'z+3/4, y+3/4, x+3/4'
  77  '-z+1/2, -x, y+1/2'
  78  'z+1/2, x, -y+1/2'
  79  '-z+1/4, y+3/4, x+1/4'
  80  'z+1/4, -y+3/4, -x+1/4'
  81  'y+1/2, z+1/2, x+1/2'
  82  '-y+1/2, -z+1/2, -x+1/2'
  83  'x+1/4, z+3/4, -y+3/4'
  84  '-x+1/4, -z+3/4, y+3/4'
  85  '-y+1/2, z, -x'
  86  'y+1/2, -z, x'
  87  '-x+3/4, z+1/4, y+3/4'
  88  'x+3/4, -z+1/4, -y+3/4'
  89  '-y+1/2, -z, x+1/2'
  90  'y+1/2, z, -x+1/2'
  91  '-x+3/4, -z+3/4, -y+3/4'
  92  'x+3/4, z+3/4, y+3/4'
  93  'y+1/2, -z+1/2, -x'
  94  '-y+1/2, z+1/2, x'
  95  'x+1/4, -z+1/4, y+3/4'
  96  '-x+1/4, z+1/4, -y+3/4'
loop_
 _atom_site_type_symbol
 _atom_site_label
 _atom_site_symmetry_multiplicity
 _atom_site_fract_x
 _atom_site_fract_y
 _atom_site_fract_z
 _atom_site_occupancy
  Cu  Cu0  16  0.12500000  0.12500000  0.12500000  1
  Au  Au1  16  0.00000000  0.00000000  0.00000000  1
# generated using pymatgen
data_ID_70
_symmetry_space_group_name_H-M   I4/mcm
_cell_length_a   6.96723683
_cell_length_b   6.96723683
_cell_length_c   5.23053422
_cell_angle_alpha   90.00000000
_cell_angle_beta   90.00000000
_cell_angle_gamma   90.00000000
_symmetry_Int_Tables_number   140
_chemical_formula_structural   CuAu
_cell_volume   253.90262723
_cell_formula_units_Z   8
loop_
 _symmetry_equiv_pos_site_id
 _symmetry_equiv_pos_as_xyz
  1  'x, y, z'
  2  '-x, -y, -z'
  3  '-y, x, z'
  4  'y, -x, -z'
  5  '-x, -y, z'
  6  'x, y, -z'
  7  'y, -x, z'
  8  '-y, x, -z'
  9  'x, -y, -z+1/2'
  10  '-x, y, z+1/2'
  11  '-y, -x, -z+1/2'
  12  'y, x, z+1/2'
  13  '-x, y, -z+1/2'
  14  'x, -y, z+1/2'
  15  'y, x, -z+1/2'
  16  '-y, -x, z+1/2'
  17  'x+1/2, y+1/2, z+1/2'
  18  '-x+1/2, -y+1/2, -z+1/2'
  19  '-y+1/2, x+1/2, z+1/2'
  20  'y+1/2, -x+1/2, -z+1/2'
  21  '-x+1/2, -y+1/2, z+1/2'
  22  'x+1/2, y+1/2, -z+1/2'
  23  'y+1/2, -x+1/2, z+1/2'
  24  '-y+1/2, x+1/2, -z+1/2'
  25  'x+1/2, -y+1/2, -z'
  26  '-x+1/2, y+1/2, z'
  27  '-y+1/2, -x+1/2, -z'
  28  'y+1/2, x+1/2, z'
  29  '-x+1/2, y+1/2, -z'
  30  'x+1/2, -y+1/2, z'
  31  'y+1/2, x+1/2, -z'
  32  '-y+1/2, -x+1/2, z'
loop_
 _atom_site_type_symbol
 _atom_site_label
 _atom_site_symmetry_multiplicity
 _atom_site_fract_x
 _atom_site_fract_y
 _atom_site_fract_z
 _atom_site_occupancy
  Cu  Cu0  4  0.00000000  0.00000000  0.00000000  1
  Cu  Cu1  4  0.00000000  0.50000000  0.25000000  1
  Au  Au2  8  0.24898528  0.74898528  0.00000000  1
# generated using pymatgen
data_ID_71
_symmetry_space_group_name_H-M   P4_2/mnm
_cell_length_a   6.94593937
_cell_length_b   6.94593937
_cell_length_c   4.84461950
_cell_angle_alpha   90.00000000
_cell_angle_beta   90.00000000
_cell_angle_gamma   90.00000000
_symmetry_Int_Tables_number   136
_chemical_formula_structural   CuAu
_cell_volume   233.73386965
_cell_formula_units_Z   8
loop_
 _symmetry_equiv_pos_site_id
 _symmetry_equiv_pos_as_xyz
  1  'x, y, z'
  2  '-x, -y, -z'
  3  '-y+1/2, x+1/2, z+1/2'
  4  'y+1/2, -x+1/2, -z+1/2'
  5  '-x, -y, z'
  6  'x, y, -z'
  7  'y+1/2, -x+1/2, z+1/2'
  8  '-y+1/2, x+1/2, -z+1/2'
  9  'x+1/2, -y+1/2, -z+1/2'
  10  '-x+1/2, y+1/2, z+1/2'
  11  '-y, -x, -z'
  12  'y, x, z'
  13  '-x+1/2, y+1/2, -z+1/2'
  14  'x+1/2, -y+1/2, z+1/2'
  15  'y, x, -z'
  16  '-y, -x, z'
loop_
 _atom_site_type_symbol
 _atom_site_label
 _atom_site_symmetry_multiplicity
 _atom_site_fract_x
 _atom_site_fract_y
 _atom_site_fract_z
 _atom_site_occupancy
  Cu  Cu0  4  0.00000000  0.50000000  0.25000000  1
  Cu  Cu1  4  0.11968039  0.11968039  0.00000000  1
  Au  Au2  4  0.13092333  0.86907667  0.50000000  1
  Au  Au3  4  0.24998242  0.75001758  0.00000000  1
# generated using pymatgen
data_ID_72
_symmetry_space_group_name_H-M   Pmmm
_cell_length_a   4.01093249
_cell_length_b   6.58600819
_cell_length_c   11.12703964
_cell_angle_alpha   90.00000000
_cell_angle_beta   90.00000000
_cell_angle_gamma   90.00000000
_symmetry_Int_Tables_number   47
_chemical_formula_structural   CuAu
_cell_volume   293.93225974
_cell_formula_units_Z   8
loop_
 _symmetry_equiv_pos_site_id
 _symmetry_equiv_pos_as_xyz
  1  'x, y, z'
  2  '-x, -y, -z'
  3  '-x, -y, z'
  4  'x, y, -z'
  5  'x, -y, -z'
  6  '-x, y, z'
  7  '-x, y, -z'
  8  'x, -y, z'
loop_
 _atom_site_type_symbol
 _atom_site_label
 _atom_site_symmetry_multiplicity
 _atom_site_fract_x
 _atom_site_fract_y
 _atom_site_fract_z
 _atom_site_occupancy
  Cu  Cu0  4  0.50000000  0.31858646  0.37386865  1
  Cu  Cu1  2  0.00000000  0.00000000  0.10974029  1
  Cu  Cu2  2  0.00000000  0.29786101  0.50000000  1
  Au  Au3  2  0.50000000  0.00000000  0.24505623  1
  Au  Au4  2  0.50000000  0.20297718  0.00000000  1
  Au  Au5  2  0.50000000  0.50000000  0.16924900  1
  Au  Au6  1  0.00000000  0.50000000  0.00000000  1
  Au  Au7  1  0.50000000  0.00000000  0.50000000  1
# generated using pymatgen
data_ID_73
_symmetry_space_group_name_H-M   I2_12_12_1
_cell_length_a   5.27742958
_cell_length_b   9.43989140
_cell_length_c   10.13482113
_cell_angle_alpha   90.00000000
_cell_angle_beta   90.00000000
_cell_angle_gamma   90.00000000
_symmetry_Int_Tables_number   24
_chemical_formula_structural   CuAu
_cell_volume   504.90018911
_cell_formula_units_Z   16
loop_
 _symmetry_equiv_pos_site_id
 _symmetry_equiv_pos_as_xyz
  1  'x, y, z'
  2  '-x, -y+1/2, z'
  3  'x, -y, -z+1/2'
  4  '-x, y+1/2, -z+1/2'
  5  'x+1/2, y+1/2, z+1/2'
  6  '-x+1/2, -y, z+1/2'
  7  'x+1/2, -y+1/2, -z'
  8  '-x+1/2, y, -z'
loop_
 _atom_site_type_symbol
 _atom_site_label
 _atom_site_symmetry_multiplicity
 _atom_site_fract_x
 _atom_site_fract_y
 _atom_site_fract_z
 _atom_site_occupancy
  Cu  Cu0  8  0.04868303  0.12558895  0.56805896  1
  Cu  Cu1  4  0.00000000  0.25000000  0.09666319  1
  Cu  Cu2  4  0.25000000  0.43953087  0.00000000  1
  Au  Au3  4  0.00000000  0.25000000  0.34501575  1
  Au  Au4  4  0.00000000  0.25000000  0.82540669  1
  Au  Au5  4  0.21400095  0.00000000  0.25000000  1
  Au  Au6  4  0.22570460  0.50000000  0.75000000  1
# generated using pymatgen
data_ID_74
_symmetry_space_group_name_H-M   Cmmm
_cell_length_a   5.21987285
_cell_length_b   10.01051261
_cell_length_c   11.85624000
_cell_angle_alpha   90.00000000
_cell_angle_beta   90.00000000
_cell_angle_gamma   90.00000000
_symmetry_Int_Tables_number   65
_chemical_formula_structural   CuAu
_cell_volume   619.53125807
_cell_formula_units_Z   16
loop_
 _symmetry_equiv_pos_site_id
 _symmetry_equiv_pos_as_xyz
  1  'x, y, z'
  2  '-x, -y, -z'
  3  '-x, -y, z'
  4  'x, y, -z'
  5  'x, -y, -z'
  6  '-x, y, z'
  7  '-x, y, -z'
  8  'x, -y, z'
  9  'x+1/2, y+1/2, z'
  10  '-x+1/2, -y+1/2, -z'
  11  '-x+1/2, -y+1/2, z'
  12  'x+1/2, y+1/2, -z'
  13  'x+1/2, -y+1/2, -z'
  14  '-x+1/2, y+1/2, z'
  15  '-x+1/2, y+1/2, -z'
  16  'x+1/2, -y+1/2, z'
loop_
 _atom_site_type_symbol
 _atom_site_label
 _atom_site_symmetry_multiplicity
 _atom_site_fract_x
 _atom_site_fract_y
 _atom_site_fract_z
 _atom_site_occupancy
  Cu  Cu0  4  0.00000000  0.12339307  0.00000000  1
  Cu  Cu1  4  0.00000000  0.29141367  0.50000000  1
  Cu  Cu2  4  0.00000000  0.37655745  0.00000000  1
  Cu  Cu3  4  0.24070289  0.00000000  0.50000000  1
  Au  Au4  8  0.00000000  0.13246737  0.33923963  1
  Au  Au5  8  0.25000000  0.25000000  0.16278694  1
# generated using pymatgen
data_ID_75
_symmetry_space_group_name_H-M   P4/mmm
_cell_length_a   4.83718642
_cell_length_b   4.83718642
_cell_length_c   7.20704169
_cell_angle_alpha   90.00000000
_cell_angle_beta   90.00000000
_cell_angle_gamma   90.00000000
_symmetry_Int_Tables_number   123
_chemical_formula_structural   CuAu
_cell_volume   168.63304612
_cell_formula_units_Z   4
loop_
 _symmetry_equiv_pos_site_id
 _symmetry_equiv_pos_as_xyz
  1  'x, y, z'
  2  '-x, -y, -z'
  3  '-y, x, z'
  4  'y, -x, -z'
  5  '-x, -y, z'
  6  'x, y, -z'
  7  'y, -x, z'
  8  '-y, x, -z'
  9  'x, -y, -z'
  10  '-x, y, z'
  11  '-y, -x, -z'
  12  'y, x, z'
  13  '-x, y, -z'
  14  'x, -y, z'
  15  'y, x, -z'
  16  '-y, -x, z'
loop_
 _atom_site_type_symbol
 _atom_site_label
 _atom_site_symmetry_multiplicity
 _atom_site_fract_x
 _atom_site_fract_y
 _atom_site_fract_z
 _atom_site_occupancy
  Cu  Cu0  2  0.00000000  0.50000000  0.50000000  1
  Cu  Cu1  2  0.50000000  0.50000000  0.15922328  1
  Au  Au2  2  0.00000000  0.50000000  0.00000000  1
  Au  Au3  1  0.00000000  0.00000000  0.50000000  1
  Au  Au4  1  0.50000000  0.50000000  0.50000000  1
# generated using pymatgen
data_ID_76
_symmetry_space_group_name_H-M   R-3m
_cell_length_a   2.73572070
_cell_length_b   2.73572070
_cell_length_c   28.37079868
_cell_angle_alpha   90.00000000
_cell_angle_beta   90.00000000
_cell_angle_gamma   120.00000000
_symmetry_Int_Tables_number   166
_chemical_formula_structural   CuAu
_cell_volume   183.88474701
_cell_formula_units_Z   6
loop_
 _symmetry_equiv_pos_site_id
 _symmetry_equiv_pos_as_xyz
  1  'x, y, z'
  2  '-x, -y, -z'
  3  '-y, x-y, z'
  4  'y, -x+y, -z'
  5  '-x+y, -x, z'
  6  'x-y, x, -z'
  7  'y, x, -z'
  8  '-y, -x, z'
  9  'x-y, -y, -z'
  10  '-x+y, y, z'
  11  '-x, -x+y, -z'
  12  'x, x-y, z'
  13  'x+2/3, y+1/3, z+1/3'
  14  '-x+2/3, -y+1/3, -z+1/3'
  15  '-y+2/3, x-y+1/3, z+1/3'
  16  'y+2/3, -x+y+1/3, -z+1/3'
  17  '-x+y+2/3, -x+1/3, z+1/3'
  18  'x-y+2/3, x+1/3, -z+1/3'
  19  'y+2/3, x+1/3, -z+1/3'
  20  '-y+2/3, -x+1/3, z+1/3'
  21  'x-y+2/3, -y+1/3, -z+1/3'
  22  '-x+y+2/3, y+1/3, z+1/3'
  23  '-x+2/3, -x+y+1/3, -z+1/3'
  24  'x+2/3, x-y+1/3, z+1/3'
  25  'x+1/3, y+2/3, z+2/3'
  26  '-x+1/3, -y+2/3, -z+2/3'
  27  '-y+1/3, x-y+2/3, z+2/3'
  28  'y+1/3, -x+y+2/3, -z+2/3'
  29  '-x+y+1/3, -x+2/3, z+2/3'
  30  'x-y+1/3, x+2/3, -z+2/3'
  31  'y+1/3, x+2/3, -z+2/3'
  32  '-y+1/3, -x+2/3, z+2/3'
  33  'x-y+1/3, -y+2/3, -z+2/3'
  34  '-x+y+1/3, y+2/3, z+2/3'
  35  '-x+1/3, -x+y+2/3, -z+2/3'
  36  'x+1/3, x-y+2/3, z+2/3'
loop_
 _atom_site_type_symbol
 _atom_site_label
 _atom_site_symmetry_multiplicity
 _atom_site_fract_x
 _atom_site_fract_y
 _atom_site_fract_z
 _atom_site_occupancy
  Cu  Cu0  3  -0.00000000  -0.00000000  0.50000000  1
  Cu  Cu1  3  0.00000000  0.00000000  0.00000000  1
  Au  Au2  6  0.00000000  0.00000000  0.09006292  1
# generated using pymatgen
data_ID_77
_symmetry_space_group_name_H-M   P4_2/mmc
_cell_length_a   4.47334233
_cell_length_b   4.47334233
_cell_length_c   9.05045744
_cell_angle_alpha   90.00000000
_cell_angle_beta   90.00000000
_cell_angle_gamma   90.00000000
_symmetry_Int_Tables_number   131
_chemical_formula_structural   CuAu
_cell_volume   181.10681772
_cell_formula_units_Z   4
loop_
 _symmetry_equiv_pos_site_id
 _symmetry_equiv_pos_as_xyz
  1  'x, y, z'
  2  '-x, -y, -z'
  3  '-y, x, z+1/2'
  4  'y, -x, -z+1/2'
  5  '-x, -y, z'
  6  'x, y, -z'
  7  'y, -x, z+1/2'
  8  '-y, x, -z+1/2'
  9  'x, -y, -z'
  10  '-x, y, z'
  11  '-y, -x, -z+1/2'
  12  'y, x, z+1/2'
  13  '-x, y, -z'
  14  'x, -y, z'
  15  'y, x, -z+1/2'
  16  '-y, -x, z+1/2'
loop_
 _atom_site_type_symbol
 _atom_site_label
 _atom_site_symmetry_multiplicity
 _atom_site_fract_x
 _atom_site_fract_y
 _atom_site_fract_z
 _atom_site_occupancy
  Cu  Cu0  2  0.50000000  0.50000000  0.00000000  1
  Cu  Cu1  2  0.50000000  0.50000000  0.25000000  1
  Au  Au2  2  0.00000000  0.00000000  0.25000000  1
  Au  Au3  2  0.00000000  0.50000000  0.50000000  1
# generated using pymatgen
data_ID_78
_symmetry_space_group_name_H-M   P4/mmm
_cell_length_a   3.03872554
_cell_length_b   3.03872554
_cell_length_c   3.00341101
_cell_angle_alpha   90.00000000
_cell_angle_beta   90.00000000
_cell_angle_gamma   90.00000000
_symmetry_Int_Tables_number   123
_chemical_formula_structural   CuAu
_cell_volume   27.73305541
_cell_formula_units_Z   1
loop_
 _symmetry_equiv_pos_site_id
 _symmetry_equiv_pos_as_xyz
  1  'x, y, z'
  2  '-x, -y, -z'
  3  '-y, x, z'
  4  'y, -x, -z'
  5  '-x, -y, z'
  6  'x, y, -z'
  7  'y, -x, z'
  8  '-y, x, -z'
  9  'x, -y, -z'
  10  '-x, y, z'
  11  '-y, -x, -z'
  12  'y, x, z'
  13  '-x, y, -z'
  14  'x, -y, z'
  15  'y, x, -z'
  16  '-y, -x, z'
loop_
 _atom_site_type_symbol
 _atom_site_label
 _atom_site_symmetry_multiplicity
 _atom_site_fract_x
 _atom_site_fract_y
 _atom_site_fract_z
 _atom_site_occupancy
  Cu  Cu0  1  0.50000000  0.50000000  0.50000000  1
  Au  Au1  1  0.00000000  0.00000000  0.00000000  1
# generated using pymatgen
data_ID_79
_symmetry_space_group_name_H-M   P4/mmm
_cell_length_a   9.81229080
_cell_length_b   9.81229080
_cell_length_c   2.66571623
_cell_angle_alpha   90.00000000
_cell_angle_beta   90.00000000
_cell_angle_gamma   90.00000000
_symmetry_Int_Tables_number   123
_chemical_formula_structural   CuAu
_cell_volume   256.65795938
_cell_formula_units_Z   8
loop_
 _symmetry_equiv_pos_site_id
 _symmetry_equiv_pos_as_xyz
  1  'x, y, z'
  2  '-x, -y, -z'
  3  '-y, x, z'
  4  'y, -x, -z'
  5  '-x, -y, z'
  6  'x, y, -z'
  7  'y, -x, z'
  8  '-y, x, -z'
  9  'x, -y, -z'
  10  '-x, y, z'
  11  '-y, -x, -z'
  12  'y, x, z'
  13  '-x, y, -z'
  14  'x, -y, z'
  15  'y, x, -z'
  16  '-y, -x, z'
loop_
 _atom_site_type_symbol
 _atom_site_label
 _atom_site_symmetry_multiplicity
 _atom_site_fract_x
 _atom_site_fract_y
 _atom_site_fract_z
 _atom_site_occupancy
  Cu  Cu0  4  0.00000000  0.26553060  0.50000000  1
  Cu  Cu1  2  0.00000000  0.50000000  0.00000000  1
  Cu  Cu2  1  0.00000000  0.00000000  0.00000000  1
  Cu  Cu3  1  0.50000000  0.50000000  0.00000000  1
  Au  Au4  4  0.22211275  0.22211275  0.00000000  1
  Au  Au5  4  0.24927489  0.50000000  0.00000000  1
# generated using pymatgen
data_ID_80
_symmetry_space_group_name_H-M   P4/mmm
_cell_length_a   2.78995091
_cell_length_b   2.78995091
_cell_length_c   3.59513515
_cell_angle_alpha   90.00000000
_cell_angle_beta   90.00000000
_cell_angle_gamma   90.00000000
_symmetry_Int_Tables_number   123
_chemical_formula_structural   CuAu
_cell_volume   27.98390677
_cell_formula_units_Z   1
loop_
 _symmetry_equiv_pos_site_id
 _symmetry_equiv_pos_as_xyz
  1  'x, y, z'
  2  '-x, -y, -z'
  3  '-y, x, z'
  4  'y, -x, -z'
  5  '-x, -y, z'
  6  'x, y, -z'
  7  'y, -x, z'
  8  '-y, x, -z'
  9  'x, -y, -z'
  10  '-x, y, z'
  11  '-y, -x, -z'
  12  'y, x, z'
  13  '-x, y, -z'
  14  'x, -y, z'
  15  'y, x, -z'
  16  '-y, -x, z'
loop_
 _atom_site_type_symbol
 _atom_site_label
 _atom_site_symmetry_multiplicity
 _atom_site_fract_x
 _atom_site_fract_y
 _atom_site_fract_z
 _atom_site_occupancy
  Cu  Cu0  1  0.00000000  0.00000000  0.50000000  1
  Au  Au1  1  0.50000000  0.50000000  0.00000000  1
# generated using pymatgen
data_ID_81
_symmetry_space_group_name_H-M   P-4m2
_cell_length_a   6.36594662
_cell_length_b   6.36594662
_cell_length_c   8.20329557
_cell_angle_alpha   90.00000000
_cell_angle_beta   90.00000000
_cell_angle_gamma   90.00000000
_symmetry_Int_Tables_number   115
_chemical_formula_structural   CuAu
_cell_volume   332.44081949
_cell_formula_units_Z   8
loop_
 _symmetry_equiv_pos_site_id
 _symmetry_equiv_pos_as_xyz
  1  'x, y, z'
  2  'y, -x, -z'
  3  '-x, -y, z'
  4  '-y, x, -z'
  5  '-x, y, z'
  6  '-y, -x, -z'
  7  'x, -y, z'
  8  'y, x, -z'
loop_
 _atom_site_type_symbol
 _atom_site_label
 _atom_site_symmetry_multiplicity
 _atom_site_fract_x
 _atom_site_fract_y
 _atom_site_fract_z
 _atom_site_occupancy
  Cu  Cu0  4  0.00000000  0.31255622  0.84608140  1
  Cu  Cu1  2  0.00000000  0.50000000  0.12012093  1
  Cu  Cu2  1  0.00000000  0.00000000  0.00000000  1
  Cu  Cu3  1  0.00000000  0.00000000  0.50000000  1
  Au  Au4  8  0.21238090  0.29268485  0.34388761  1
# generated using pymatgen
data_ID_82
_symmetry_space_group_name_H-M   Fd-3m
_cell_length_a   15.83670367
_cell_length_b   15.83670367
_cell_length_c   15.83670367
_cell_angle_alpha   90.00000000
_cell_angle_beta   90.00000000
_cell_angle_gamma   90.00000000
_symmetry_Int_Tables_number   227
_chemical_formula_structural   CuAu
_cell_volume   3971.86401375
_cell_formula_units_Z   32
loop_
 _symmetry_equiv_pos_site_id
 _symmetry_equiv_pos_as_xyz
  1  'x, y, z'
  2  '-y+1/4, x+1/4, z+1/4'
  3  '-x, -y+1/2, z+1/2'
  4  'y+3/4, -x+1/4, z+3/4'
  5  'x, -y, -z'
  6  '-y+1/4, -x+3/4, -z+3/4'
  7  '-x, y+1/2, -z+1/2'
  8  'y+3/4, x+3/4, -z+1/4'
  9  'z, x, y'
  10  'z+1/4, -y+1/4, x+1/4'
  11  'z+1/2, -x, -y+1/2'
  12  'z+3/4, y+3/4, -x+1/4'
  13  '-z, x, -y'
  14  '-z+3/4, -y+1/4, -x+3/4'
  15  '-z+1/2, -x, y+1/2'
  16  '-z+1/4, y+3/4, x+3/4'
  17  'y, z, x'
  18  'x+1/4, z+1/4, -y+1/4'
  19  '-y+1/2, z+1/2, -x'
  20  '-x+1/4, z+3/4, y+3/4'
  21  '-y, -z, x'
  22  '-x+3/4, -z+3/4, -y+1/4'
  23  'y+1/2, -z+1/2, -x'
  24  'x+3/4, -z+1/4, y+3/4'
  25  '-x+1/4, -y+1/4, -z+1/4'
  26  'y, -x, -z'
  27  'x+1/4, y+3/4, -z+3/4'
  28  '-y+1/2, x, -z+1/2'
  29  '-x+1/4, y+1/4, z+1/4'
  30  'y, x+1/2, z+1/2'
  31  'x+1/4, -y+3/4, z+3/4'
  32  '-y+1/2, -x+1/2, z'
  33  '-z+1/4, -x+1/4, -y+1/4'
  34  '-z, y, -x'
  35  '-z+3/4, x+1/4, y+3/4'
  36  '-z+1/2, -y+1/2, x'
  37  'z+1/4, -x+1/4, y+1/4'
  38  'z+1/2, y, x+1/2'
  39  'z+3/4, x+1/4, -y+3/4'
  40  'z, -y+1/2, -x+1/2'
  41  '-y+1/4, -z+1/4, -x+1/4'
  42  '-x, -z, y'
  43  'y+3/4, -z+3/4, x+1/4'
  44  'x, -z+1/2, -y+1/2'
  45  'y+1/4, z+1/4, -x+1/4'
  46  'x+1/2, z+1/2, y'
  47  '-y+3/4, z+3/4, x+1/4'
  48  '-x+1/2, z, -y+1/2'
  49  'x+1/2, y+1/2, z'
  50  '-y+3/4, x+3/4, z+1/4'
  51  '-x+1/2, -y, z+1/2'
  52  'y+1/4, -x+3/4, z+3/4'
  53  'x+1/2, -y+1/2, -z'
  54  '-y+3/4, -x+1/4, -z+3/4'
  55  '-x+1/2, y, -z+1/2'
  56  'y+1/4, x+1/4, -z+1/4'
  57  'z+1/2, x+1/2, y'
  58  'z+3/4, -y+3/4, x+1/4'
  59  'z, -x+1/2, -y+1/2'
  60  'z+1/4, y+1/4, -x+1/4'
  61  '-z+1/2, x+1/2, -y'
  62  '-z+1/4, -y+3/4, -x+3/4'
  63  '-z, -x+1/2, y+1/2'
  64  '-z+3/4, y+1/4, x+3/4'
  65  'y+1/2, z+1/2, x'
  66  'x+3/4, z+3/4, -y+1/4'
  67  '-y, z, -x'
  68  '-x+3/4, z+1/4, y+3/4'
  69  '-y+1/2, -z+1/2, x'
  70  '-x+1/4, -z+1/4, -y+1/4'
  71  'y, -z, -x'
  72  'x+1/4, -z+3/4, y+3/4'
  73  '-x+3/4, -y+3/4, -z+1/4'
  74  'y+1/2, -x+1/2, -z'
  75  'x+3/4, y+1/4, -z+3/4'
  76  '-y, x+1/2, -z+1/2'
  77  '-x+3/4, y+3/4, z+1/4'
  78  'y+1/2, x, z+1/2'
  79  'x+3/4, -y+1/4, z+3/4'
  80  '-y, -x, z'
  81  '-z+3/4, -x+3/4, -y+1/4'
  82  '-z+1/2, y+1/2, -x'
  83  '-z+1/4, x+3/4, y+3/4'
  84  '-z, -y, x'
  85  'z+3/4, -x+3/4, y+1/4'
  86  'z, y+1/2, x+1/2'
  87  'z+1/4, x+3/4, -y+3/4'
  88  'z+1/2, -y, -x+1/2'
  89  '-y+3/4, -z+3/4, -x+1/4'
  90  '-x+1/2, -z+1/2, y'
  91  'y+1/4, -z+1/4, x+1/4'
  92  'x+1/2, -z, -y+1/2'
  93  'y+3/4, z+3/4, -x+1/4'
  94  'x, z, y'
  95  '-y+1/4, z+1/4, x+1/4'
  96  '-x, z+1/2, -y+1/2'
  97  'x+1/2, y, z+1/2'
  98  '-y+3/4, x+1/4, z+3/4'
  99  '-x+1/2, -y+1/2, z'
  100  'y+1/4, -x+1/4, z+1/4'
  101  'x+1/2, -y, -z+1/2'
  102  '-y+3/4, -x+3/4, -z+1/4'
  103  '-x+1/2, y+1/2, -z'
  104  'y+1/4, x+3/4, -z+3/4'
  105  'z+1/2, x, y+1/2'
  106  'z+3/4, -y+1/4, x+3/4'
  107  'z, -x, -y'
  108  'z+1/4, y+3/4, -x+3/4'
  109  '-z+1/2, x, -y+1/2'
  110  '-z+1/4, -y+1/4, -x+1/4'
  111  '-z, -x, y'
  112  '-z+3/4, y+3/4, x+1/4'
  113  'y+1/2, z, x+1/2'
  114  'x+3/4, z+1/4, -y+3/4'
  115  '-y, z+1/2, -x+1/2'
  116  '-x+3/4, z+3/4, y+1/4'
  117  '-y+1/2, -z, x+1/2'
  118  '-x+1/4, -z+3/4, -y+3/4'
  119  'y, -z+1/2, -x+1/2'
  120  'x+1/4, -z+1/4, y+1/4'
  121  '-x+3/4, -y+1/4, -z+3/4'
  122  'y+1/2, -x, -z+1/2'
  123  'x+3/4, y+3/4, -z+1/4'
  124  '-y, x, -z'
  125  '-x+3/4, y+1/4, z+3/4'
  126  'y+1/2, x+1/2, z'
  127  'x+3/4, -y+3/4, z+1/4'
  128  '-y, -x+1/2, z+1/2'
  129  '-z+3/4, -x+1/4, -y+3/4'
  130  '-z+1/2, y, -x+1/2'
  131  '-z+1/4, x+1/4, y+1/4'
  132  '-z, -y+1/2, x+1/2'
  133  'z+3/4, -x+1/4, y+3/4'
  134  'z, y, x'
  135  'z+1/4, x+1/4, -y+1/4'
  136  'z+1/2, -y+1/2, -x'
  137  '-y+3/4, -z+1/4, -x+3/4'
  138  '-x+1/2, -z, y+1/2'
  139  'y+1/4, -z+3/4, x+3/4'
  140  'x+1/2, -z+1/2, -y'
  141  'y+3/4, z+1/4, -x+3/4'
  142  'x, z+1/2, y+1/2'
  143  '-y+1/4, z+3/4, x+3/4'
  144  '-x, z, -y'
  145  'x, y+1/2, z+1/2'
  146  '-y+1/4, x+3/4, z+3/4'
  147  '-x, -y, z'
  148  'y+3/4, -x+3/4, z+1/4'
  149  'x, -y+1/2, -z+1/2'
  150  '-y+1/4, -x+1/4, -z+1/4'
  151  '-x, y, -z'
  152  'y+3/4, x+1/4, -z+3/4'
  153  'z, x+1/2, y+1/2'
  154  'z+1/4, -y+3/4, x+3/4'
  155  'z+1/2, -x+1/2, -y'
  156  'z+3/4, y+1/4, -x+3/4'
  157  '-z, x+1/2, -y+1/2'
  158  '-z+3/4, -y+3/4, -x+1/4'
  159  '-z+1/2, -x+1/2, y'
  160  '-z+1/4, y+1/4, x+1/4'
  161  'y, z+1/2, x+1/2'
  162  'x+1/4, z+3/4, -y+3/4'
  163  '-y+1/2, z, -x+1/2'
  164  '-x+1/4, z+1/4, y+1/4'
  165  '-y, -z+1/2, x+1/2'
  166  '-x+3/4, -z+1/4, -y+3/4'
  167  'y+1/2, -z, -x+1/2'
  168  'x+3/4, -z+3/4, y+1/4'
  169  '-x+1/4, -y+3/4, -z+3/4'
  170  'y, -x+1/2, -z+1/2'
  171  'x+1/4, y+1/4, -z+1/4'
  172  '-y+1/2, x+1/2, -z'
  173  '-x+1/4, y+3/4, z+3/4'
  174  'y, x, z'
  175  'x+1/4, -y+1/4, z+1/4'
  176  '-y+1/2, -x, z+1/2'
  177  '-z+1/4, -x+3/4, -y+3/4'
  178  '-z, y+1/2, -x+1/2'
  179  '-z+3/4, x+3/4, y+1/4'
  180  '-z+1/2, -y, x+1/2'
  181  'z+1/4, -x+3/4, y+3/4'
  182  'z+1/2, y+1/2, x'
  183  'z+3/4, x+3/4, -y+1/4'
  184  'z, -y, -x'
  185  '-y+1/4, -z+3/4, -x+3/4'
  186  '-x, -z+1/2, y+1/2'
  187  'y+3/4, -z+1/4, x+3/4'
  188  'x, -z, -y'
  189  'y+1/4, z+3/4, -x+3/4'
  190  'x+1/2, z, y+1/2'
  191  '-y+3/4, z+1/4, x+3/4'
  192  '-x+1/2, z+1/2, -y'
loop_
 _atom_site_type_symbol
 _atom_site_label
 _atom_site_symmetry_multiplicity
 _atom_site_fract_x
 _atom_site_fract_y
 _atom_site_fract_z
 _atom_site_occupancy
  Cu  Cu0  32  0.08438098  0.41561902  0.41561902  1
  Au  Au1  16  0.12500000  0.12500000  0.62500000  1
  Au  Au2  8  0.00000000  0.00000000  0.00000000  1
  Au  Au3  8  0.00000000  0.00000000  0.50000000  1
# generated using pymatgen
data_ID_83
_symmetry_space_group_name_H-M   I4_1
_cell_length_a   5.17101066
_cell_length_b   5.17101066
_cell_length_c   18.33147564
_cell_angle_alpha   90.00000000
_cell_angle_beta   90.00000000
_cell_angle_gamma   90.00000000
_symmetry_Int_Tables_number   80
_chemical_formula_structural   CuAu
_cell_volume   490.17176603
_cell_formula_units_Z   16
loop_
 _symmetry_equiv_pos_site_id
 _symmetry_equiv_pos_as_xyz
  1  'x, y, z'
  2  '-y, x+1/2, z+1/4'
  3  '-x+1/2, -y+1/2, z+1/2'
  4  'y+1/2, -x, z+3/4'
  5  'x+1/2, y+1/2, z+1/2'
  6  '-y+1/2, x, z+3/4'
  7  '-x, -y, z'
  8  'y, -x+1/2, z+1/4'
loop_
 _atom_site_type_symbol
 _atom_site_label
 _atom_site_symmetry_multiplicity
 _atom_site_fract_x
 _atom_site_fract_y
 _atom_site_fract_z
 _atom_site_occupancy
  Cu  Cu0  8  0.01451250  0.25355144  0.23275335  1
  Cu  Cu1  4  0.00000000  0.00000000  0.46386985  1
  Cu  Cu2  4  0.00000000  0.00000000  0.71601019  1
  Au  Au3  8  0.00560449  0.75064112  0.58921369  1
  Au  Au4  4  0.00000000  0.00000000  0.10981054  1
  Au  Au5  4  0.00000000  0.00000000  0.85621839  1
# generated using pymatgen
data_ID_84
_symmetry_space_group_name_H-M   I2_13
_cell_length_a   10.99665565
_cell_length_b   10.99665565
_cell_length_c   10.99665565
_cell_angle_alpha   90.00000000
_cell_angle_beta   90.00000000
_cell_angle_gamma   90.00000000
_symmetry_Int_Tables_number   199
_chemical_formula_structural   CuAu
_cell_volume   1329.78637096
_cell_formula_units_Z   16
loop_
 _symmetry_equiv_pos_site_id
 _symmetry_equiv_pos_as_xyz
  1  'x, y, z'
  2  '-x, -y+1/2, z'
  3  'x, -y, -z+1/2'
  4  '-x, y+1/2, -z+1/2'
  5  'z, x, y'
  6  'z, -x, -y+1/2'
  7  '-z+1/2, x, -y'
  8  '-z+1/2, -x, y+1/2'
  9  'y, z, x'
  10  '-y+1/2, z, -x'
  11  '-y, -z+1/2, x'
  12  'y+1/2, -z+1/2, -x'
  13  'x+1/2, y+1/2, z+1/2'
  14  '-x+1/2, -y, z+1/2'
  15  'x+1/2, -y+1/2, -z'
  16  '-x+1/2, y, -z'
  17  'z+1/2, x+1/2, y+1/2'
  18  'z+1/2, -x+1/2, -y'
  19  '-z, x+1/2, -y+1/2'
  20  '-z, -x+1/2, y'
  21  'y+1/2, z+1/2, x+1/2'
  22  '-y, z+1/2, -x+1/2'
  23  '-y+1/2, -z, x+1/2'
  24  'y, -z, -x+1/2'
loop_
 _atom_site_type_symbol
 _atom_site_label
 _atom_site_symmetry_multiplicity
 _atom_site_fract_x
 _atom_site_fract_y
 _atom_site_fract_z
 _atom_site_occupancy
  Cu  Cu0  8  0.06947053  0.06947053  0.06947053  1
  Cu  Cu1  8  0.19326125  0.80673875  0.30673875  1
  Au  Au2  8  0.05579179  0.44420821  0.55579179  1
  Au  Au3  8  0.18146647  0.31853353  0.68146647  1
# generated using pymatgen
data_ID_85
_symmetry_space_group_name_H-M   Pmmm
_cell_length_a   2.72546742
_cell_length_b   6.45568592
_cell_length_c   7.11911387
_cell_angle_alpha   90.00000000
_cell_angle_beta   90.00000000
_cell_angle_gamma   90.00000000
_symmetry_Int_Tables_number   47
_chemical_formula_structural   CuAu
_cell_volume   125.25911175
_cell_formula_units_Z   4
loop_
 _symmetry_equiv_pos_site_id
 _symmetry_equiv_pos_as_xyz
  1  'x, y, z'
  2  '-x, -y, -z'
  3  '-x, -y, z'
  4  'x, y, -z'
  5  'x, -y, -z'
  6  '-x, y, z'
  7  '-x, y, -z'
  8  'x, -y, z'
loop_
 _atom_site_type_symbol
 _atom_site_label
 _atom_site_symmetry_multiplicity
 _atom_site_fract_x
 _atom_site_fract_y
 _atom_site_fract_z
 _atom_site_occupancy
  Cu  Cu0  2  0.00000000  0.31779799  0.50000000  1
  Cu  Cu1  1  0.00000000  0.00000000  0.00000000  1
  Cu  Cu2  1  0.50000000  0.00000000  0.50000000  1
  Au  Au3  4  0.50000000  0.28142406  0.19292059  1
# generated using pymatgen
data_ID_86
_symmetry_space_group_name_H-M   Imm2
_cell_length_a   8.12326881
_cell_length_b   8.15504976
_cell_length_c   9.20823247
_cell_angle_alpha   90.00000000
_cell_angle_beta   90.00000000
_cell_angle_gamma   90.00000000
_symmetry_Int_Tables_number   44
_chemical_formula_structural   CuAu
_cell_volume   610.00545017
_cell_formula_units_Z   16
loop_
 _symmetry_equiv_pos_site_id
 _symmetry_equiv_pos_as_xyz
  1  'x, y, z'
  2  '-x, -y, z'
  3  '-x, y, z'
  4  'x, -y, z'
  5  'x+1/2, y+1/2, z+1/2'
  6  '-x+1/2, -y+1/2, z+1/2'
  7  '-x+1/2, y+1/2, z+1/2'
  8  'x+1/2, -y+1/2, z+1/2'
loop_
 _atom_site_type_symbol
 _atom_site_label
 _atom_site_symmetry_multiplicity
 _atom_site_fract_x
 _atom_site_fract_y
 _atom_site_fract_z
 _atom_site_occupancy
  Cu  Cu0  8  0.17112591  0.73871277  0.58172530  1
  Cu  Cu1  4  0.00000000  0.20994960  0.09100260  1
  Cu  Cu2  2  0.00000000  0.00000000  0.64059597  1
  Cu  Cu3  2  0.00000000  0.50000000  0.61936569  1
  Au  Au4  8  0.16481406  0.16711754  0.84800135  1
  Au  Au5  4  0.00000000  0.33379359  0.35111531  1
  Au  Au6  4  0.16432437  0.50000000  0.12239064  1
# generated using pymatgen
data_ID_87
_symmetry_space_group_name_H-M   Cmmm
_cell_length_a   5.47645805
_cell_length_b   10.92147395
_cell_length_c   3.81268523
_cell_angle_alpha   90.00000000
_cell_angle_beta   90.00000000
_cell_angle_gamma   90.00000000
_symmetry_Int_Tables_number   65
_chemical_formula_structural   CuAu
_cell_volume   228.04049278
_cell_formula_units_Z   8
loop_
 _symmetry_equiv_pos_site_id
 _symmetry_equiv_pos_as_xyz
  1  'x, y, z'
  2  '-x, -y, -z'
  3  '-x, -y, z'
  4  'x, y, -z'
  5  'x, -y, -z'
  6  '-x, y, z'
  7  '-x, y, -z'
  8  'x, -y, z'
  9  'x+1/2, y+1/2, z'
  10  '-x+1/2, -y+1/2, -z'
  11  '-x+1/2, -y+1/2, z'
  12  'x+1/2, y+1/2, -z'
  13  'x+1/2, -y+1/2, -z'
  14  '-x+1/2, y+1/2, z'
  15  '-x+1/2, y+1/2, -z'
  16  'x+1/2, -y+1/2, z'
loop_
 _atom_site_type_symbol
 _atom_site_label
 _atom_site_symmetry_multiplicity
 _atom_site_fract_x
 _atom_site_fract_y
 _atom_site_fract_z
 _atom_site_occupancy
  Cu  Cu0  4  0.00000000  0.11811839  0.50000000  1
  Cu  Cu1  4  0.23789833  0.00000000  0.00000000  1
  Au  Au2  4  0.00000000  0.37892730  0.50000000  1
  Au  Au3  4  0.25000000  0.25000000  0.00000000  1
# generated using pymatgen
data_ID_88
_symmetry_space_group_name_H-M   Im-3m
_cell_length_a   11.16472174
_cell_length_b   11.16472174
_cell_length_c   11.16472174
_cell_angle_alpha   90.00000000
_cell_angle_beta   90.00000000
_cell_angle_gamma   90.00000000
_symmetry_Int_Tables_number   229
_chemical_formula_structural   CuAu
_cell_volume   1391.69385797
_cell_formula_units_Z   16
loop_
 _symmetry_equiv_pos_site_id
 _symmetry_equiv_pos_as_xyz
  1  'x, y, z'
  2  '-x, -y, -z'
  3  '-y, x, z'
  4  'y, -x, -z'
  5  '-x, -y, z'
  6  'x, y, -z'
  7  'y, -x, z'
  8  '-y, x, -z'
  9  'x, -y, -z'
  10  '-x, y, z'
  11  '-y, -x, -z'
  12  'y, x, z'
  13  '-x, y, -z'
  14  'x, -y, z'
  15  'y, x, -z'
  16  '-y, -x, z'
  17  'z, x, y'
  18  '-z, -x, -y'
  19  'z, -y, x'
  20  '-z, y, -x'
  21  'z, -x, -y'
  22  '-z, x, y'
  23  'z, y, -x'
  24  '-z, -y, x'
  25  '-z, x, -y'
  26  'z, -x, y'
  27  '-z, -y, -x'
  28  'z, y, x'
  29  '-z, -x, y'
  30  'z, x, -y'
  31  '-z, y, x'
  32  'z, -y, -x'
  33  'y, z, x'
  34  '-y, -z, -x'
  35  'x, z, -y'
  36  '-x, -z, y'
  37  '-y, z, -x'
  38  'y, -z, x'
  39  '-x, z, y'
  40  'x, -z, -y'
  41  '-y, -z, x'
  42  'y, z, -x'
  43  '-x, -z, -y'
  44  'x, z, y'
  45  'y, -z, -x'
  46  '-y, z, x'
  47  'x, -z, y'
  48  '-x, z, -y'
  49  'x+1/2, y+1/2, z+1/2'
  50  '-x+1/2, -y+1/2, -z+1/2'
  51  '-y+1/2, x+1/2, z+1/2'
  52  'y+1/2, -x+1/2, -z+1/2'
  53  '-x+1/2, -y+1/2, z+1/2'
  54  'x+1/2, y+1/2, -z+1/2'
  55  'y+1/2, -x+1/2, z+1/2'
  56  '-y+1/2, x+1/2, -z+1/2'
  57  'x+1/2, -y+1/2, -z+1/2'
  58  '-x+1/2, y+1/2, z+1/2'
  59  '-y+1/2, -x+1/2, -z+1/2'
  60  'y+1/2, x+1/2, z+1/2'
  61  '-x+1/2, y+1/2, -z+1/2'
  62  'x+1/2, -y+1/2, z+1/2'
  63  'y+1/2, x+1/2, -z+1/2'
  64  '-y+1/2, -x+1/2, z+1/2'
  65  'z+1/2, x+1/2, y+1/2'
  66  '-z+1/2, -x+1/2, -y+1/2'
  67  'z+1/2, -y+1/2, x+1/2'
  68  '-z+1/2, y+1/2, -x+1/2'
  69  'z+1/2, -x+1/2, -y+1/2'
  70  '-z+1/2, x+1/2, y+1/2'
  71  'z+1/2, y+1/2, -x+1/2'
  72  '-z+1/2, -y+1/2, x+1/2'
  73  '-z+1/2, x+1/2, -y+1/2'
  74  'z+1/2, -x+1/2, y+1/2'
  75  '-z+1/2, -y+1/2, -x+1/2'
  76  'z+1/2, y+1/2, x+1/2'
  77  '-z+1/2, -x+1/2, y+1/2'
  78  'z+1/2, x+1/2, -y+1/2'
  79  '-z+1/2, y+1/2, x+1/2'
  80  'z+1/2, -y+1/2, -x+1/2'
  81  'y+1/2, z+1/2, x+1/2'
  82  '-y+1/2, -z+1/2, -x+1/2'
  83  'x+1/2, z+1/2, -y+1/2'
  84  '-x+1/2, -z+1/2, y+1/2'
  85  '-y+1/2, z+1/2, -x+1/2'
  86  'y+1/2, -z+1/2, x+1/2'
  87  '-x+1/2, z+1/2, y+1/2'
  88  'x+1/2, -z+1/2, -y+1/2'
  89  '-y+1/2, -z+1/2, x+1/2'
  90  'y+1/2, z+1/2, -x+1/2'
  91  '-x+1/2, -z+1/2, -y+1/2'
  92  'x+1/2, z+1/2, y+1/2'
  93  'y+1/2, -z+1/2, -x+1/2'
  94  '-y+1/2, z+1/2, x+1/2'
  95  'x+1/2, -z+1/2, y+1/2'
  96  '-x+1/2, z+1/2, -y+1/2'
loop_
 _atom_site_type_symbol
 _atom_site_label
 _atom_site_symmetry_multiplicity
 _atom_site_fract_x
 _atom_site_fract_y
 _atom_site_fract_z
 _atom_site_occupancy
  Cu  Cu0  8  0.25000000  0.25000000  0.25000000  1
  Cu  Cu1  6  0.00000000  0.00000000  0.50000000  1
  Cu  Cu2  2  0.00000000  0.00000000  0.00000000  1
  Au  Au3  16  0.12415780  0.12415780  0.12415780  1
# generated using pymatgen
data_ID_89
_symmetry_space_group_name_H-M   P2/m
_cell_length_a   2.68777927
_cell_length_b   5.47259802
_cell_length_c   7.99046018
_cell_angle_alpha   90.00000000
_cell_angle_beta   91.12240687
_cell_angle_gamma   90.00000000
_symmetry_Int_Tables_number   10
_chemical_formula_structural   CuAu
_cell_volume   117.51021020
_cell_formula_units_Z   4
loop_
 _symmetry_equiv_pos_site_id
 _symmetry_equiv_pos_as_xyz
  1  'x, y, z'
  2  '-x, -y, -z'
  3  '-x, y, -z'
  4  'x, -y, z'
loop_
 _atom_site_type_symbol
 _atom_site_label
 _atom_site_symmetry_multiplicity
 _atom_site_fract_x
 _atom_site_fract_y
 _atom_site_fract_z
 _atom_site_occupancy
  Cu  Cu0  1  0.00000000  0.00000000  0.00000000  1
  Cu  Cu1  1  0.00000000  0.00000000  0.50000000  1
  Cu  Cu2  1  0.00000000  0.50000000  0.50000000  1
  Cu  Cu3  1  0.50000000  0.50000000  0.00000000  1
  Au  Au4  4  0.48633136  0.24490340  0.26405118  1
# generated using pymatgen
data_ID_90
_symmetry_space_group_name_H-M   I4/m
_cell_length_a   8.54268195
_cell_length_b   8.54268195
_cell_length_c   6.89811462
_cell_angle_alpha   90.00000000
_cell_angle_beta   90.00000000
_cell_angle_gamma   90.00000000
_symmetry_Int_Tables_number   87
_chemical_formula_structural   CuAu
_cell_volume   503.40657222
_cell_formula_units_Z   16
loop_
 _symmetry_equiv_pos_site_id
 _symmetry_equiv_pos_as_xyz
  1  'x, y, z'
  2  '-x, -y, -z'
  3  '-y, x, z'
  4  'y, -x, -z'
  5  '-x, -y, z'
  6  'x, y, -z'
  7  'y, -x, z'
  8  '-y, x, -z'
  9  'x+1/2, y+1/2, z+1/2'
  10  '-x+1/2, -y+1/2, -z+1/2'
  11  '-y+1/2, x+1/2, z+1/2'
  12  'y+1/2, -x+1/2, -z+1/2'
  13  '-x+1/2, -y+1/2, z+1/2'
  14  'x+1/2, y+1/2, -z+1/2'
  15  'y+1/2, -x+1/2, z+1/2'
  16  '-y+1/2, x+1/2, -z+1/2'
loop_
 _atom_site_type_symbol
 _atom_site_label
 _atom_site_symmetry_multiplicity
 _atom_site_fract_x
 _atom_site_fract_y
 _atom_site_fract_z
 _atom_site_occupancy
  Cu  Cu0  16  0.10663186  0.81050997  0.18588896  1
  Au  Au1  8  0.08590655  0.36013966  0.00000000  1
  Au  Au2  8  0.09411856  0.22102358  0.50000000  1
# generated using pymatgen
data_ID_91
_symmetry_space_group_name_H-M   Fddd
_cell_length_a   6.08073379
_cell_length_b   11.85920818
_cell_length_c   14.87069230
_cell_angle_alpha   90.00000000
_cell_angle_beta   90.00000000
_cell_angle_gamma   90.00000000
_symmetry_Int_Tables_number   70
_chemical_formula_structural   CuAu
_cell_volume   1072.36559239
_cell_formula_units_Z   32
loop_
 _symmetry_equiv_pos_site_id
 _symmetry_equiv_pos_as_xyz
  1  'x, y, z'
  2  '-x, -y, z'
  3  'x, -y, -z'
  4  '-x, y, -z'
  5  '-x+1/4, -y+1/4, -z+1/4'
  6  'x+1/4, y+1/4, -z+1/4'
  7  '-x+1/4, y+1/4, z+1/4'
  8  'x+1/4, -y+1/4, z+1/4'
  9  'x+1/2, y, z+1/2'
  10  '-x+1/2, -y, z+1/2'
  11  'x+1/2, -y, -z+1/2'
  12  '-x+1/2, y, -z+1/2'
  13  '-x+3/4, -y+1/4, -z+3/4'
  14  'x+3/4, y+1/4, -z+3/4'
  15  '-x+3/4, y+1/4, z+3/4'
  16  'x+3/4, -y+1/4, z+3/4'
  17  'x+1/2, y+1/2, z'
  18  '-x+1/2, -y+1/2, z'
  19  'x+1/2, -y+1/2, -z'
  20  '-x+1/2, y+1/2, -z'
  21  '-x+3/4, -y+3/4, -z+1/4'
  22  'x+3/4, y+3/4, -z+1/4'
  23  '-x+3/4, y+3/4, z+1/4'
  24  'x+3/4, -y+3/4, z+1/4'
  25  'x, y+1/2, z+1/2'
  26  '-x, -y+1/2, z+1/2'
  27  'x, -y+1/2, -z+1/2'
  28  '-x, y+1/2, -z+1/2'
  29  '-x+1/4, -y+3/4, -z+3/4'
  30  'x+1/4, y+3/4, -z+3/4'
  31  '-x+1/4, y+3/4, z+3/4'
  32  'x+1/4, -y+3/4, z+3/4'
loop_
 _atom_site_type_symbol
 _atom_site_label
 _atom_site_symmetry_multiplicity
 _atom_site_fract_x
 _atom_site_fract_y
 _atom_site_fract_z
 _atom_site_occupancy
  Cu  Cu0  16  0.00000000  0.00000000  0.31978174  1
  Cu  Cu1  16  0.00000000  0.10598839  0.00000000  1
  Au  Au2  32  0.11945775  0.09286252  0.82959135  1
# generated using pymatgen
data_ID_92
_symmetry_space_group_name_H-M   Fd-3m
_cell_length_a   7.72820301
_cell_length_b   7.72820301
_cell_length_c   7.72820301
_cell_angle_alpha   90.00000000
_cell_angle_beta   90.00000000
_cell_angle_gamma   90.00000000
_symmetry_Int_Tables_number   227
_chemical_formula_structural   CuAu
_cell_volume   461.56786608
_cell_formula_units_Z   16
loop_
 _symmetry_equiv_pos_site_id
 _symmetry_equiv_pos_as_xyz
  1  'x, y, z'
  2  '-y+1/4, x+1/4, z+1/4'
  3  '-x, -y+1/2, z+1/2'
  4  'y+3/4, -x+1/4, z+3/4'
  5  'x, -y, -z'
  6  '-y+1/4, -x+3/4, -z+3/4'
  7  '-x, y+1/2, -z+1/2'
  8  'y+3/4, x+3/4, -z+1/4'
  9  'z, x, y'
  10  'z+1/4, -y+1/4, x+1/4'
  11  'z+1/2, -x, -y+1/2'
  12  'z+3/4, y+3/4, -x+1/4'
  13  '-z, x, -y'
  14  '-z+3/4, -y+1/4, -x+3/4'
  15  '-z+1/2, -x, y+1/2'
  16  '-z+1/4, y+3/4, x+3/4'
  17  'y, z, x'
  18  'x+1/4, z+1/4, -y+1/4'
  19  '-y+1/2, z+1/2, -x'
  20  '-x+1/4, z+3/4, y+3/4'
  21  '-y, -z, x'
  22  '-x+3/4, -z+3/4, -y+1/4'
  23  'y+1/2, -z+1/2, -x'
  24  'x+3/4, -z+1/4, y+3/4'
  25  '-x+1/4, -y+1/4, -z+1/4'
  26  'y, -x, -z'
  27  'x+1/4, y+3/4, -z+3/4'
  28  '-y+1/2, x, -z+1/2'
  29  '-x+1/4, y+1/4, z+1/4'
  30  'y, x+1/2, z+1/2'
  31  'x+1/4, -y+3/4, z+3/4'
  32  '-y+1/2, -x+1/2, z'
  33  '-z+1/4, -x+1/4, -y+1/4'
  34  '-z, y, -x'
  35  '-z+3/4, x+1/4, y+3/4'
  36  '-z+1/2, -y+1/2, x'
  37  'z+1/4, -x+1/4, y+1/4'
  38  'z+1/2, y, x+1/2'
  39  'z+3/4, x+1/4, -y+3/4'
  40  'z, -y+1/2, -x+1/2'
  41  '-y+1/4, -z+1/4, -x+1/4'
  42  '-x, -z, y'
  43  'y+3/4, -z+3/4, x+1/4'
  44  'x, -z+1/2, -y+1/2'
  45  'y+1/4, z+1/4, -x+1/4'
  46  'x+1/2, z+1/2, y'
  47  '-y+3/4, z+3/4, x+1/4'
  48  '-x+1/2, z, -y+1/2'
  49  'x+1/2, y+1/2, z'
  50  '-y+3/4, x+3/4, z+1/4'
  51  '-x+1/2, -y, z+1/2'
  52  'y+1/4, -x+3/4, z+3/4'
  53  'x+1/2, -y+1/2, -z'
  54  '-y+3/4, -x+1/4, -z+3/4'
  55  '-x+1/2, y, -z+1/2'
  56  'y+1/4, x+1/4, -z+1/4'
  57  'z+1/2, x+1/2, y'
  58  'z+3/4, -y+3/4, x+1/4'
  59  'z, -x+1/2, -y+1/2'
  60  'z+1/4, y+1/4, -x+1/4'
  61  '-z+1/2, x+1/2, -y'
  62  '-z+1/4, -y+3/4, -x+3/4'
  63  '-z, -x+1/2, y+1/2'
  64  '-z+3/4, y+1/4, x+3/4'
  65  'y+1/2, z+1/2, x'
  66  'x+3/4, z+3/4, -y+1/4'
  67  '-y, z, -x'
  68  '-x+3/4, z+1/4, y+3/4'
  69  '-y+1/2, -z+1/2, x'
  70  '-x+1/4, -z+1/4, -y+1/4'
  71  'y, -z, -x'
  72  'x+1/4, -z+3/4, y+3/4'
  73  '-x+3/4, -y+3/4, -z+1/4'
  74  'y+1/2, -x+1/2, -z'
  75  'x+3/4, y+1/4, -z+3/4'
  76  '-y, x+1/2, -z+1/2'
  77  '-x+3/4, y+3/4, z+1/4'
  78  'y+1/2, x, z+1/2'
  79  'x+3/4, -y+1/4, z+3/4'
  80  '-y, -x, z'
  81  '-z+3/4, -x+3/4, -y+1/4'
  82  '-z+1/2, y+1/2, -x'
  83  '-z+1/4, x+3/4, y+3/4'
  84  '-z, -y, x'
  85  'z+3/4, -x+3/4, y+1/4'
  86  'z, y+1/2, x+1/2'
  87  'z+1/4, x+3/4, -y+3/4'
  88  'z+1/2, -y, -x+1/2'
  89  '-y+3/4, -z+3/4, -x+1/4'
  90  '-x+1/2, -z+1/2, y'
  91  'y+1/4, -z+1/4, x+1/4'
  92  'x+1/2, -z, -y+1/2'
  93  'y+3/4, z+3/4, -x+1/4'
  94  'x, z, y'
  95  '-y+1/4, z+1/4, x+1/4'
  96  '-x, z+1/2, -y+1/2'
  97  'x+1/2, y, z+1/2'
  98  '-y+3/4, x+1/4, z+3/4'
  99  '-x+1/2, -y+1/2, z'
  100  'y+1/4, -x+1/4, z+1/4'
  101  'x+1/2, -y, -z+1/2'
  102  '-y+3/4, -x+3/4, -z+1/4'
  103  '-x+1/2, y+1/2, -z'
  104  'y+1/4, x+3/4, -z+3/4'
  105  'z+1/2, x, y+1/2'
  106  'z+3/4, -y+1/4, x+3/4'
  107  'z, -x, -y'
  108  'z+1/4, y+3/4, -x+3/4'
  109  '-z+1/2, x, -y+1/2'
  110  '-z+1/4, -y+1/4, -x+1/4'
  111  '-z, -x, y'
  112  '-z+3/4, y+3/4, x+1/4'
  113  'y+1/2, z, x+1/2'
  114  'x+3/4, z+1/4, -y+3/4'
  115  '-y, z+1/2, -x+1/2'
  116  '-x+3/4, z+3/4, y+1/4'
  117  '-y+1/2, -z, x+1/2'
  118  '-x+1/4, -z+3/4, -y+3/4'
  119  'y, -z+1/2, -x+1/2'
  120  'x+1/4, -z+1/4, y+1/4'
  121  '-x+3/4, -y+1/4, -z+3/4'
  122  'y+1/2, -x, -z+1/2'
  123  'x+3/4, y+3/4, -z+1/4'
  124  '-y, x, -z'
  125  '-x+3/4, y+1/4, z+3/4'
  126  'y+1/2, x+1/2, z'
  127  'x+3/4, -y+3/4, z+1/4'
  128  '-y, -x+1/2, z+1/2'
  129  '-z+3/4, -x+1/4, -y+3/4'
  130  '-z+1/2, y, -x+1/2'
  131  '-z+1/4, x+1/4, y+1/4'
  132  '-z, -y+1/2, x+1/2'
  133  'z+3/4, -x+1/4, y+3/4'
  134  'z, y, x'
  135  'z+1/4, x+1/4, -y+1/4'
  136  'z+1/2, -y+1/2, -x'
  137  '-y+3/4, -z+1/4, -x+3/4'
  138  '-x+1/2, -z, y+1/2'
  139  'y+1/4, -z+3/4, x+3/4'
  140  'x+1/2, -z+1/2, -y'
  141  'y+3/4, z+1/4, -x+3/4'
  142  'x, z+1/2, y+1/2'
  143  '-y+1/4, z+3/4, x+3/4'
  144  '-x, z, -y'
  145  'x, y+1/2, z+1/2'
  146  '-y+1/4, x+3/4, z+3/4'
  147  '-x, -y, z'
  148  'y+3/4, -x+3/4, z+1/4'
  149  'x, -y+1/2, -z+1/2'
  150  '-y+1/4, -x+1/4, -z+1/4'
  151  '-x, y, -z'
  152  'y+3/4, x+1/4, -z+3/4'
  153  'z, x+1/2, y+1/2'
  154  'z+1/4, -y+3/4, x+3/4'
  155  'z+1/2, -x+1/2, -y'
  156  'z+3/4, y+1/4, -x+3/4'
  157  '-z, x+1/2, -y+1/2'
  158  '-z+3/4, -y+3/4, -x+1/4'
  159  '-z+1/2, -x+1/2, y'
  160  '-z+1/4, y+1/4, x+1/4'
  161  'y, z+1/2, x+1/2'
  162  'x+1/4, z+3/4, -y+3/4'
  163  '-y+1/2, z, -x+1/2'
  164  '-x+1/4, z+1/4, y+1/4'
  165  '-y, -z+1/2, x+1/2'
  166  '-x+3/4, -z+1/4, -y+3/4'
  167  'y+1/2, -z, -x+1/2'
  168  'x+3/4, -z+3/4, y+1/4'
  169  '-x+1/4, -y+3/4, -z+3/4'
  170  'y, -x+1/2, -z+1/2'
  171  'x+1/4, y+1/4, -z+1/4'
  172  '-y+1/2, x+1/2, -z'
  173  '-x+1/4, y+3/4, z+3/4'
  174  'y, x, z'
  175  'x+1/4, -y+1/4, z+1/4'
  176  '-y+1/2, -x, z+1/2'
  177  '-z+1/4, -x+3/4, -y+3/4'
  178  '-z, y+1/2, -x+1/2'
  179  '-z+3/4, x+3/4, y+1/4'
  180  '-z+1/2, -y, x+1/2'
  181  'z+1/4, -x+3/4, y+3/4'
  182  'z+1/2, y+1/2, x'
  183  'z+3/4, x+3/4, -y+1/4'
  184  'z, -y, -x'
  185  '-y+1/4, -z+3/4, -x+3/4'
  186  '-x, -z+1/2, y+1/2'
  187  'y+3/4, -z+1/4, x+3/4'
  188  'x, -z, -y'
  189  'y+1/4, z+3/4, -x+3/4'
  190  'x+1/2, z, y+1/2'
  191  '-y+3/4, z+1/4, x+3/4'
  192  '-x+1/2, z+1/2, -y'
loop_
 _atom_site_type_symbol
 _atom_site_label
 _atom_site_symmetry_multiplicity
 _atom_site_fract_x
 _atom_site_fract_y
 _atom_site_fract_z
 _atom_site_occupancy
  Cu  Cu0  16  0.12500000  0.12500000  0.12500000  1
  Au  Au1  16  0.12500000  0.12500000  0.62500000  1
# generated using pymatgen
data_ID_93
_symmetry_space_group_name_H-M   Im-3m
_cell_length_a   11.16675892
_cell_length_b   11.16675892
_cell_length_c   11.16675892
_cell_angle_alpha   90.00000000
_cell_angle_beta   90.00000000
_cell_angle_gamma   90.00000000
_symmetry_Int_Tables_number   229
_chemical_formula_structural   CuAu
_cell_volume   1392.45580520
_cell_formula_units_Z   16
loop_
 _symmetry_equiv_pos_site_id
 _symmetry_equiv_pos_as_xyz
  1  'x, y, z'
  2  '-x, -y, -z'
  3  '-y, x, z'
  4  'y, -x, -z'
  5  '-x, -y, z'
  6  'x, y, -z'
  7  'y, -x, z'
  8  '-y, x, -z'
  9  'x, -y, -z'
  10  '-x, y, z'
  11  '-y, -x, -z'
  12  'y, x, z'
  13  '-x, y, -z'
  14  'x, -y, z'
  15  'y, x, -z'
  16  '-y, -x, z'
  17  'z, x, y'
  18  '-z, -x, -y'
  19  'z, -y, x'
  20  '-z, y, -x'
  21  'z, -x, -y'
  22  '-z, x, y'
  23  'z, y, -x'
  24  '-z, -y, x'
  25  '-z, x, -y'
  26  'z, -x, y'
  27  '-z, -y, -x'
  28  'z, y, x'
  29  '-z, -x, y'
  30  'z, x, -y'
  31  '-z, y, x'
  32  'z, -y, -x'
  33  'y, z, x'
  34  '-y, -z, -x'
  35  'x, z, -y'
  36  '-x, -z, y'
  37  '-y, z, -x'
  38  'y, -z, x'
  39  '-x, z, y'
  40  'x, -z, -y'
  41  '-y, -z, x'
  42  'y, z, -x'
  43  '-x, -z, -y'
  44  'x, z, y'
  45  'y, -z, -x'
  46  '-y, z, x'
  47  'x, -z, y'
  48  '-x, z, -y'
  49  'x+1/2, y+1/2, z+1/2'
  50  '-x+1/2, -y+1/2, -z+1/2'
  51  '-y+1/2, x+1/2, z+1/2'
  52  'y+1/2, -x+1/2, -z+1/2'
  53  '-x+1/2, -y+1/2, z+1/2'
  54  'x+1/2, y+1/2, -z+1/2'
  55  'y+1/2, -x+1/2, z+1/2'
  56  '-y+1/2, x+1/2, -z+1/2'
  57  'x+1/2, -y+1/2, -z+1/2'
  58  '-x+1/2, y+1/2, z+1/2'
  59  '-y+1/2, -x+1/2, -z+1/2'
  60  'y+1/2, x+1/2, z+1/2'
  61  '-x+1/2, y+1/2, -z+1/2'
  62  'x+1/2, -y+1/2, z+1/2'
  63  'y+1/2, x+1/2, -z+1/2'
  64  '-y+1/2, -x+1/2, z+1/2'
  65  'z+1/2, x+1/2, y+1/2'
  66  '-z+1/2, -x+1/2, -y+1/2'
  67  'z+1/2, -y+1/2, x+1/2'
  68  '-z+1/2, y+1/2, -x+1/2'
  69  'z+1/2, -x+1/2, -y+1/2'
  70  '-z+1/2, x+1/2, y+1/2'
  71  'z+1/2, y+1/2, -x+1/2'
  72  '-z+1/2, -y+1/2, x+1/2'
  73  '-z+1/2, x+1/2, -y+1/2'
  74  'z+1/2, -x+1/2, y+1/2'
  75  '-z+1/2, -y+1/2, -x+1/2'
  76  'z+1/2, y+1/2, x+1/2'
  77  '-z+1/2, -x+1/2, y+1/2'
  78  'z+1/2, x+1/2, -y+1/2'
  79  '-z+1/2, y+1/2, x+1/2'
  80  'z+1/2, -y+1/2, -x+1/2'
  81  'y+1/2, z+1/2, x+1/2'
  82  '-y+1/2, -z+1/2, -x+1/2'
  83  'x+1/2, z+1/2, -y+1/2'
  84  '-x+1/2, -z+1/2, y+1/2'
  85  '-y+1/2, z+1/2, -x+1/2'
  86  'y+1/2, -z+1/2, x+1/2'
  87  '-x+1/2, z+1/2, y+1/2'
  88  'x+1/2, -z+1/2, -y+1/2'
  89  '-y+1/2, -z+1/2, x+1/2'
  90  'y+1/2, z+1/2, -x+1/2'
  91  '-x+1/2, -z+1/2, -y+1/2'
  92  'x+1/2, z+1/2, y+1/2'
  93  'y+1/2, -z+1/2, -x+1/2'
  94  '-y+1/2, z+1/2, x+1/2'
  95  'x+1/2, -z+1/2, y+1/2'
  96  '-x+1/2, z+1/2, -y+1/2'
loop_
 _atom_site_type_symbol
 _atom_site_label
 _atom_site_symmetry_multiplicity
 _atom_site_fract_x
 _atom_site_fract_y
 _atom_site_fract_z
 _atom_site_occupancy
  Cu  Cu0  8  0.25000000  0.25000000  0.25000000  1
  Cu  Cu1  6  0.00000000  0.00000000  0.50000000  1
  Cu  Cu2  2  0.00000000  0.00000000  0.00000000  1
  Au  Au3  16  0.12413253  0.12413253  0.12413253  1
# generated using pymatgen
data_ID_94
_symmetry_space_group_name_H-M   P4/mmm
_cell_length_a   5.45470638
_cell_length_b   5.45470638
_cell_length_c   9.50484710
_cell_angle_alpha   90.00000000
_cell_angle_beta   90.00000000
_cell_angle_gamma   90.00000000
_symmetry_Int_Tables_number   123
_chemical_formula_structural   CuAu
_cell_volume   282.80552614
_cell_formula_units_Z   8
loop_
 _symmetry_equiv_pos_site_id
 _symmetry_equiv_pos_as_xyz
  1  'x, y, z'
  2  '-x, -y, -z'
  3  '-y, x, z'
  4  'y, -x, -z'
  5  '-x, -y, z'
  6  'x, y, -z'
  7  'y, -x, z'
  8  '-y, x, -z'
  9  'x, -y, -z'
  10  '-x, y, z'
  11  '-y, -x, -z'
  12  'y, x, z'
  13  '-x, y, -z'
  14  'x, -y, z'
  15  'y, x, -z'
  16  '-y, -x, z'
loop_
 _atom_site_type_symbol
 _atom_site_label
 _atom_site_symmetry_multiplicity
 _atom_site_fract_x
 _atom_site_fract_y
 _atom_site_fract_z
 _atom_site_occupancy
  Cu  Cu0  4  0.00000000  0.50000000  0.12474137  1
  Cu  Cu1  2  0.00000000  0.50000000  0.50000000  1
  Cu  Cu2  1  0.00000000  0.00000000  0.00000000  1
  Cu  Cu3  1  0.50000000  0.50000000  0.50000000  1
  Au  Au4  8  0.24808031  0.75191969  0.30852541  1
# generated using pymatgen
data_ID_95
_symmetry_space_group_name_H-M   P4mm
_cell_length_a   10.08815764
_cell_length_b   10.08815764
_cell_length_c   2.70813311
_cell_angle_alpha   90.00000000
_cell_angle_beta   90.00000000
_cell_angle_gamma   90.00000000
_symmetry_Int_Tables_number   99
_chemical_formula_structural   CuAu
_cell_volume   275.60921077
_cell_formula_units_Z   8
loop_
 _symmetry_equiv_pos_site_id
 _symmetry_equiv_pos_as_xyz
  1  'x, y, z'
  2  '-y, x, z'
  3  '-x, -y, z'
  4  'y, -x, z'
  5  '-x, y, z'
  6  'y, x, z'
  7  'x, -y, z'
  8  '-y, -x, z'
loop_
 _atom_site_type_symbol
 _atom_site_label
 _atom_site_symmetry_multiplicity
 _atom_site_fract_x
 _atom_site_fract_y
 _atom_site_fract_z
 _atom_site_occupancy
  Cu  Cu0  4  0.35670838  0.35670838  0.52292324  1
  Cu  Cu1  2  0.00000000  0.50000000  0.51977955  1
  Cu  Cu2  1  0.00000000  0.00000000  0.99101360  1
  Cu  Cu3  1  0.50000000  0.50000000  0.02254059  1
  Au  Au4  8  0.13371557  0.32060888  0.02169457  1
# generated using pymatgen
data_ID_96
_symmetry_space_group_name_H-M   P222
_cell_length_a   5.01946323
_cell_length_b   6.97357253
_cell_length_c   7.77965569
_cell_angle_alpha   90.00000000
_cell_angle_beta   90.00000000
_cell_angle_gamma   90.00000000
_symmetry_Int_Tables_number   16
_chemical_formula_structural   CuAu
_cell_volume   272.31588510
_cell_formula_units_Z   8
loop_
 _symmetry_equiv_pos_site_id
 _symmetry_equiv_pos_as_xyz
  1  'x, y, z'
  2  '-x, -y, z'
  3  'x, -y, -z'
  4  '-x, y, -z'
loop_
 _atom_site_type_symbol
 _atom_site_label
 _atom_site_symmetry_multiplicity
 _atom_site_fract_x
 _atom_site_fract_y
 _atom_site_fract_z
 _atom_site_occupancy
  Cu  Cu0  4  0.23791045  0.32025519  0.00816101  1
  Cu  Cu1  2  0.50000000  0.00000000  0.33870949  1
  Cu  Cu2  2  0.50000000  0.50000000  0.20113989  1
  Au  Au3  4  0.04982299  0.31550812  0.69103234  1
  Au  Au4  1  0.00000000  0.00000000  0.00000000  1
  Au  Au5  1  0.00000000  0.00000000  0.50000000  1
  Au  Au6  1  0.50000000  0.00000000  0.00000000  1
  Au  Au7  1  0.50000000  0.50000000  0.50000000  1
# generated using pymatgen
data_ID_97
_symmetry_space_group_name_H-M   Imma
_cell_length_a   5.05740066
_cell_length_b   6.74034106
_cell_length_c   7.65432733
_cell_angle_alpha   90.00000000
_cell_angle_beta   90.00000000
_cell_angle_gamma   90.00000000
_symmetry_Int_Tables_number   74
_chemical_formula_structural   CuAu
_cell_volume   260.92534372
_cell_formula_units_Z   8
loop_
 _symmetry_equiv_pos_site_id
 _symmetry_equiv_pos_as_xyz
  1  'x, y, z'
  2  '-x, -y, -z'
  3  '-x, -y+1/2, z'
  4  'x, y+1/2, -z'
  5  'x, -y, -z'
  6  '-x, y, z'
  7  '-x, y+1/2, -z'
  8  'x, -y+1/2, z'
  9  'x+1/2, y+1/2, z+1/2'
  10  '-x+1/2, -y+1/2, -z+1/2'
  11  '-x+1/2, -y, z+1/2'
  12  'x+1/2, y, -z+1/2'
  13  'x+1/2, -y+1/2, -z+1/2'
  14  '-x+1/2, y+1/2, z+1/2'
  15  '-x+1/2, y, -z+1/2'
  16  'x+1/2, -y, z+1/2'
loop_
 _atom_site_type_symbol
 _atom_site_label
 _atom_site_symmetry_multiplicity
 _atom_site_fract_x
 _atom_site_fract_y
 _atom_site_fract_z
 _atom_site_occupancy
  Cu  Cu0  8  0.00000000  0.07144208  0.64544029  1
  Au  Au1  4  0.00000000  0.25000000  0.93691756  1
  Au  Au2  4  0.25000000  0.25000000  0.25000000  1
# generated using pymatgen
data_ID_98
_symmetry_space_group_name_H-M   P4mm
_cell_length_a   5.30699610
_cell_length_b   5.30699610
_cell_length_c   13.77041493
_cell_angle_alpha   90.00000000
_cell_angle_beta   90.00000000
_cell_angle_gamma   90.00000000
_symmetry_Int_Tables_number   99
_chemical_formula_structural   CuAu
_cell_volume   387.83282494
_cell_formula_units_Z   8
loop_
 _symmetry_equiv_pos_site_id
 _symmetry_equiv_pos_as_xyz
  1  'x, y, z'
  2  '-y, x, z'
  3  '-x, -y, z'
  4  'y, -x, z'
  5  '-x, y, z'
  6  'y, x, z'
  7  'x, -y, z'
  8  '-y, -x, z'
loop_
 _atom_site_type_symbol
 _atom_site_label
 _atom_site_symmetry_multiplicity
 _atom_site_fract_x
 _atom_site_fract_y
 _atom_site_fract_z
 _atom_site_occupancy
  Cu  Cu0  2  0.00000000  0.50000000  0.28475892  1
  Cu  Cu1  2  0.00000000  0.50000000  0.77712507  1
  Cu  Cu2  1  0.00000000  0.00000000  0.28403105  1
  Cu  Cu3  1  0.00000000  0.00000000  0.55335523  1
  Cu  Cu4  1  0.00000000  0.00000000  0.89969468  1
  Cu  Cu5  1  0.50000000  0.50000000  0.76735052  1
  Au  Au6  4  0.25145633  0.25145633  0.42185461  1
  Au  Au7  2  0.00000000  0.50000000  0.59190800  1
  Au  Au8  1  0.00000000  0.00000000  0.72995303  1
  Au  Au9  1  0.50000000  0.50000000  0.58493788  1
# generated using pymatgen
data_ID_99
_symmetry_space_group_name_H-M   R-3m
_cell_length_a   9.72859341
_cell_length_b   9.72859341
_cell_length_c   9.75800808
_cell_angle_alpha   90.00000000
_cell_angle_beta   90.00000000
_cell_angle_gamma   120.00000000
_symmetry_Int_Tables_number   166
_chemical_formula_structural   CuAu
_cell_volume   799.81935906
_cell_formula_units_Z   24
loop_
 _symmetry_equiv_pos_site_id
 _symmetry_equiv_pos_as_xyz
  1  'x, y, z'
  2  '-x, -y, -z'
  3  '-y, x-y, z'
  4  'y, -x+y, -z'
  5  '-x+y, -x, z'
  6  'x-y, x, -z'
  7  'y, x, -z'
  8  '-y, -x, z'
  9  'x-y, -y, -z'
  10  '-x+y, y, z'
  11  '-x, -x+y, -z'
  12  'x, x-y, z'
  13  'x+2/3, y+1/3, z+1/3'
  14  '-x+2/3, -y+1/3, -z+1/3'
  15  '-y+2/3, x-y+1/3, z+1/3'
  16  'y+2/3, -x+y+1/3, -z+1/3'
  17  '-x+y+2/3, -x+1/3, z+1/3'
  18  'x-y+2/3, x+1/3, -z+1/3'
  19  'y+2/3, x+1/3, -z+1/3'
  20  '-y+2/3, -x+1/3, z+1/3'
  21  'x-y+2/3, -y+1/3, -z+1/3'
  22  '-x+y+2/3, y+1/3, z+1/3'
  23  '-x+2/3, -x+y+1/3, -z+1/3'
  24  'x+2/3, x-y+1/3, z+1/3'
  25  'x+1/3, y+2/3, z+2/3'
  26  '-x+1/3, -y+2/3, -z+2/3'
  27  '-y+1/3, x-y+2/3, z+2/3'
  28  'y+1/3, -x+y+2/3, -z+2/3'
  29  '-x+y+1/3, -x+2/3, z+2/3'
  30  'x-y+1/3, x+2/3, -z+2/3'
  31  'y+1/3, x+2/3, -z+2/3'
  32  '-y+1/3, -x+2/3, z+2/3'
  33  'x-y+1/3, -y+2/3, -z+2/3'
  34  '-x+y+1/3, y+2/3, z+2/3'
  35  '-x+1/3, -x+y+2/3, -z+2/3'
  36  'x+1/3, x-y+2/3, z+2/3'
loop_
 _atom_site_type_symbol
 _atom_site_label
 _atom_site_symmetry_multiplicity
 _atom_site_fract_x
 _atom_site_fract_y
 _atom_site_fract_z
 _atom_site_occupancy
  Cu  Cu0  18  0.04291464  0.52145732  0.62298338  1
  Cu  Cu1  3  0.00000000  0.00000000  0.00000000  1
  Cu  Cu2  3  0.00000000  0.00000000  0.50000000  1
  Au  Au3  18  0.00000000  0.27142929  0.50000000  1
  Au  Au4  6  0.00000000  0.00000000  0.24776815  1
