# generated using pymatgen
data_ID_0
_symmetry_space_group_name_H-M   Cmme
_cell_length_a   8.47174486
_cell_length_b   10.85947578
_cell_length_c   2.64147968
_cell_angle_alpha   90.00000000
_cell_angle_beta   90.00000000
_cell_angle_gamma   90.00000000
_symmetry_Int_Tables_number   67
_chemical_formula_structural   CuAu
_cell_volume   243.01271819
_cell_formula_units_Z   8
loop_
 _symmetry_equiv_pos_site_id
 _symmetry_equiv_pos_as_xyz
  1  'x, y, z'
  2  '-x, -y, -z'
  3  '-x+1/2, -y, z'
  4  'x+1/2, y, -z'
  5  'x, -y, -z'
  6  '-x, y, z'
  7  '-x+1/2, y, -z'
  8  'x+1/2, -y, z'
  9  'x+1/2, y+1/2, z'
  10  '-x+1/2, -y+1/2, -z'
  11  '-x, -y+1/2, z'
  12  'x, y+1/2, -z'
  13  'x+1/2, -y+1/2, -z'
  14  '-x+1/2, y+1/2, z'
  15  '-x, y+1/2, -z'
  16  'x, -y+1/2, z'
loop_
 _atom_site_type_symbol
 _atom_site_label
 _atom_site_symmetry_multiplicity
 _atom_site_fract_x
 _atom_site_fract_y
 _atom_site_fract_z
 _atom_site_occupancy
  Cu  Cu0  4  0.00000000  0.00000000  0.50000000  1
  Cu  Cu1  4  0.00000000  0.25000000  0.00334487  1
  Au  Au2  8  0.25000000  0.12950344  0.50000000  1
# generated using pymatgen
data_ID_1
_symmetry_space_group_name_H-M   P4_1
_cell_length_a   5.18669015
_cell_length_b   5.18669015
_cell_length_c   8.59461647
_cell_angle_alpha   90.00000000
_cell_angle_beta   90.00000000
_cell_angle_gamma   90.00000000
_symmetry_Int_Tables_number   76
_chemical_formula_structural   CuAu
_cell_volume   231.21026432
_cell_formula_units_Z   8
loop_
 _symmetry_equiv_pos_site_id
 _symmetry_equiv_pos_as_xyz
  1  'x, y, z'
  2  '-y, x, z+1/4'
  3  '-x, -y, z+1/2'
  4  'y, -x, z+3/4'
loop_
 _atom_site_type_symbol
 _atom_site_label
 _atom_site_symmetry_multiplicity
 _atom_site_fract_x
 _atom_site_fract_y
 _atom_site_fract_z
 _atom_site_occupancy
  Cu  Cu0  4  0.18116761  0.46719140  0.18864891  1
  Cu  Cu1  4  0.34071863  0.41660989  0.68778615  1
  Au  Au2  4  0.03674744  0.27623613  0.45577837  1
  Au  Au3  4  0.09474881  0.22484876  0.92202644  1
# generated using pymatgen
data_ID_2
_symmetry_space_group_name_H-M   P6_3/mmc
_cell_length_a   12.55935088
_cell_length_b   12.55935088
_cell_length_c   4.97203941
_cell_angle_alpha   90.00000000
_cell_angle_beta   90.00000000
_cell_angle_gamma   120.00000000
_symmetry_Int_Tables_number   194
_chemical_formula_structural   CuAu
_cell_volume   679.20297878
_cell_formula_units_Z   8
loop_
 _symmetry_equiv_pos_site_id
 _symmetry_equiv_pos_as_xyz
  1  'x, y, z'
  2  '-x, -y, -z'
  3  'x-y, x, z+1/2'
  4  '-x+y, -x, -z+1/2'
  5  '-y, x-y, z'
  6  'y, -x+y, -z'
  7  '-x, -y, z+1/2'
  8  'x, y, -z+1/2'
  9  '-x+y, -x, z'
  10  'x-y, x, -z'
  11  'y, -x+y, z+1/2'
  12  '-y, x-y, -z+1/2'
  13  '-y, -x, -z+1/2'
  14  'y, x, z+1/2'
  15  '-x, -x+y, -z'
  16  'x, x-y, z'
  17  '-x+y, y, -z+1/2'
  18  'x-y, -y, z+1/2'
  19  'y, x, -z'
  20  '-y, -x, z'
  21  'x, x-y, -z+1/2'
  22  '-x, -x+y, z+1/2'
  23  'x-y, -y, -z'
  24  '-x+y, y, z'
loop_
 _atom_site_type_symbol
 _atom_site_label
 _atom_site_symmetry_multiplicity
 _atom_site_fract_x
 _atom_site_fract_y
 _atom_site_fract_z
 _atom_site_occupancy
  Cu  Cu0  6  0.20552933  0.60276466  0.75000000  1
  Cu  Cu1  2  0.33333333  0.66666667  0.25000000  1
  Au  Au2  6  0.00000000  0.50000000  0.00000000  1
  Au  Au3  2  0.00000000  0.00000000  0.00000000  1
# generated using pymatgen
data_ID_3
_symmetry_space_group_name_H-M   P6_3/mmc
_cell_length_a   7.05604863
_cell_length_b   7.05604863
_cell_length_c   6.84943109
_cell_angle_alpha   90.00000000
_cell_angle_beta   90.00000000
_cell_angle_gamma   120.00000000
_symmetry_Int_Tables_number   194
_chemical_formula_structural   CuAu
_cell_volume   295.33047391
_cell_formula_units_Z   8
loop_
 _symmetry_equiv_pos_site_id
 _symmetry_equiv_pos_as_xyz
  1  'x, y, z'
  2  '-x, -y, -z'
  3  'x-y, x, z+1/2'
  4  '-x+y, -x, -z+1/2'
  5  '-y, x-y, z'
  6  'y, -x+y, -z'
  7  '-x, -y, z+1/2'
  8  'x, y, -z+1/2'
  9  '-x+y, -x, z'
  10  'x-y, x, -z'
  11  'y, -x+y, z+1/2'
  12  '-y, x-y, -z+1/2'
  13  '-y, -x, -z+1/2'
  14  'y, x, z+1/2'
  15  '-x, -x+y, -z'
  16  'x, x-y, z'
  17  '-x+y, y, -z+1/2'
  18  'x-y, -y, z+1/2'
  19  'y, x, -z'
  20  '-y, -x, z'
  21  'x, x-y, -z+1/2'
  22  '-x, -x+y, z+1/2'
  23  'x-y, -y, -z'
  24  '-x+y, y, z'
loop_
 _atom_site_type_symbol
 _atom_site_label
 _atom_site_symmetry_multiplicity
 _atom_site_fract_x
 _atom_site_fract_y
 _atom_site_fract_z
 _atom_site_occupancy
  Cu  Cu0  6  0.00000000  0.50000000  0.00000000  1
  Cu  Cu1  2  0.00000000  0.00000000  0.25000000  1
  Au  Au2  6  0.20265300  0.40530599  0.25000000  1
  Au  Au3  2  0.33333333  0.66666667  0.75000000  1
# generated using pymatgen
data_ID_4
_symmetry_space_group_name_H-M   P6_3cm
_cell_length_a   5.23408644
_cell_length_b   5.23408644
_cell_length_c   14.51141949
_cell_angle_alpha   90.00000000
_cell_angle_beta   90.00000000
_cell_angle_gamma   120.00000000
_symmetry_Int_Tables_number   185
_chemical_formula_structural   CuAu
_cell_volume   344.28833623
_cell_formula_units_Z   8
loop_
 _symmetry_equiv_pos_site_id
 _symmetry_equiv_pos_as_xyz
  1  'x, y, z'
  2  'x-y, x, z+1/2'
  3  '-y, x-y, z'
  4  '-x, -y, z+1/2'
  5  '-x+y, -x, z'
  6  'y, -x+y, z+1/2'
  7  'y, x, z'
  8  'x, x-y, z+1/2'
  9  'x-y, -y, z'
  10  '-y, -x, z+1/2'
  11  '-x, -x+y, z'
  12  '-x+y, y, z+1/2'
loop_
 _atom_site_type_symbol
 _atom_site_label
 _atom_site_symmetry_multiplicity
 _atom_site_fract_x
 _atom_site_fract_y
 _atom_site_fract_z
 _atom_site_occupancy
  Cu  Cu0  4  0.33333333  0.66666667  0.51163454  1
  Cu  Cu1  2  0.00000000  0.00000000  0.10108698  1
  Cu  Cu2  2  0.00000000  0.00000000  0.43978785  1
  Au  Au3  6  0.00000000  0.49618429  0.36316026  1
  Au  Au4  2  0.00000000  0.00000000  0.27029661  1
# generated using pymatgen
data_ID_5
_symmetry_space_group_name_H-M   Pnma
_cell_length_a   6.23469949
_cell_length_b   2.70665297
_cell_length_c   7.01390923
_cell_angle_alpha   90.00000000
_cell_angle_beta   90.00000000
_cell_angle_gamma   90.00000000
_symmetry_Int_Tables_number   62
_chemical_formula_structural   CuAu
_cell_volume   118.36089575
_cell_formula_units_Z   4
loop_
 _symmetry_equiv_pos_site_id
 _symmetry_equiv_pos_as_xyz
  1  'x, y, z'
  2  '-x, -y, -z'
  3  '-x+1/2, -y, z+1/2'
  4  'x+1/2, y, -z+1/2'
  5  'x+1/2, -y+1/2, -z+1/2'
  6  '-x+1/2, y+1/2, z+1/2'
  7  '-x, y+1/2, -z'
  8  'x, -y+1/2, z'
loop_
 _atom_site_type_symbol
 _atom_site_label
 _atom_site_symmetry_multiplicity
 _atom_site_fract_x
 _atom_site_fract_y
 _atom_site_fract_z
 _atom_site_occupancy
  Cu  Cu0  4  0.16957601  0.75000000  0.46977886  1
  Au  Au1  4  0.00897272  0.75000000  0.81588003  1
# generated using pymatgen
data_ID_6
_symmetry_space_group_name_H-M   P4/mmm
_cell_length_a   2.80094932
_cell_length_b   2.80094932
_cell_length_c   3.56396367
_cell_angle_alpha   90.00000000
_cell_angle_beta   90.00000000
_cell_angle_gamma   90.00000000
_symmetry_Int_Tables_number   123
_chemical_formula_structural   CuAu
_cell_volume   27.96042503
_cell_formula_units_Z   1
loop_
 _symmetry_equiv_pos_site_id
 _symmetry_equiv_pos_as_xyz
  1  'x, y, z'
  2  '-x, -y, -z'
  3  '-y, x, z'
  4  'y, -x, -z'
  5  '-x, -y, z'
  6  'x, y, -z'
  7  'y, -x, z'
  8  '-y, x, -z'
  9  'x, -y, -z'
  10  '-x, y, z'
  11  '-y, -x, -z'
  12  'y, x, z'
  13  '-x, y, -z'
  14  'x, -y, z'
  15  'y, x, -z'
  16  '-y, -x, z'
loop_
 _atom_site_type_symbol
 _atom_site_label
 _atom_site_symmetry_multiplicity
 _atom_site_fract_x
 _atom_site_fract_y
 _atom_site_fract_z
 _atom_site_occupancy
  Cu  Cu0  1  0.00000000  0.00000000  0.00000000  1
  Au  Au1  1  0.50000000  0.50000000  0.50000000  1
# generated using pymatgen
data_ID_7
_symmetry_space_group_name_H-M   Pbcm
_cell_length_a   5.52447664
_cell_length_b   4.63506409
_cell_length_c   4.42381692
_cell_angle_alpha   90.00000000
_cell_angle_beta   90.00000000
_cell_angle_gamma   90.00000000
_symmetry_Int_Tables_number   57
_chemical_formula_structural   CuAu
_cell_volume   113.27759766
_cell_formula_units_Z   4
loop_
 _symmetry_equiv_pos_site_id
 _symmetry_equiv_pos_as_xyz
  1  'x, y, z'
  2  '-x, -y, -z'
  3  '-x, -y, z+1/2'
  4  'x, y, -z+1/2'
  5  'x, -y+1/2, -z'
  6  '-x, y+1/2, z'
  7  '-x, y+1/2, -z+1/2'
  8  'x, -y+1/2, z+1/2'
loop_
 _atom_site_type_symbol
 _atom_site_label
 _atom_site_symmetry_multiplicity
 _atom_site_fract_x
 _atom_site_fract_y
 _atom_site_fract_z
 _atom_site_occupancy
  Cu  Cu0  4  0.38466891  0.07842902  0.75000000  1
  Au  Au1  4  0.14194877  0.56654740  0.75000000  1
# generated using pymatgen
data_ID_8
_symmetry_space_group_name_H-M   Pbcm
_cell_length_a   9.76489197
_cell_length_b   8.82898597
_cell_length_c   2.75062968
_cell_angle_alpha   90.00000000
_cell_angle_beta   90.00000000
_cell_angle_gamma   90.00000000
_symmetry_Int_Tables_number   57
_chemical_formula_structural   CuAu
_cell_volume   237.14304635
_cell_formula_units_Z   8
loop_
 _symmetry_equiv_pos_site_id
 _symmetry_equiv_pos_as_xyz
  1  'x, y, z'
  2  '-x, -y, -z'
  3  '-x, -y, z+1/2'
  4  'x, y, -z+1/2'
  5  'x, -y+1/2, -z'
  6  '-x, y+1/2, z'
  7  '-x, y+1/2, -z+1/2'
  8  'x, -y+1/2, z+1/2'
loop_
 _atom_site_type_symbol
 _atom_site_label
 _atom_site_symmetry_multiplicity
 _atom_site_fract_x
 _atom_site_fract_y
 _atom_site_fract_z
 _atom_site_occupancy
  Cu  Cu0  4  0.09874433  0.63105861  0.25000000  1
  Cu  Cu1  4  0.31728576  0.63185326  0.75000000  1
  Au  Au2  4  0.16366194  0.11370714  0.25000000  1
  Au  Au3  4  0.41627921  0.10914300  0.75000000  1
# generated using pymatgen
data_ID_9
_symmetry_space_group_name_H-M   I4_1/amd
_cell_length_a   3.78012599
_cell_length_b   3.78012599
_cell_length_c   7.88609512
_cell_angle_alpha   90.00000000
_cell_angle_beta   90.00000000
_cell_angle_gamma   90.00000000
_symmetry_Int_Tables_number   141
_chemical_formula_structural   CuAu
_cell_volume   112.68719329
_cell_formula_units_Z   4
loop_
 _symmetry_equiv_pos_site_id
 _symmetry_equiv_pos_as_xyz
  1  'x, y, z'
  2  '-y, x+1/2, z+1/4'
  3  '-x+1/2, -y+1/2, z+1/2'
  4  'y+1/2, -x, z+3/4'
  5  'x, -y+1/2, -z+1/4'
  6  '-y, -x, -z'
  7  '-x+1/2, y, -z+3/4'
  8  'y+1/2, x+1/2, -z+1/2'
  9  '-x, -y+1/2, -z+1/4'
  10  'y, -x, -z'
  11  'x+1/2, y, -z+3/4'
  12  '-y+1/2, x+1/2, -z+1/2'
  13  '-x, y, z'
  14  'y, x+1/2, z+1/4'
  15  'x+1/2, -y+1/2, z+1/2'
  16  '-y+1/2, -x, z+3/4'
  17  'x+1/2, y+1/2, z+1/2'
  18  '-y+1/2, x, z+3/4'
  19  '-x, -y, z'
  20  'y, -x+1/2, z+1/4'
  21  'x+1/2, -y, -z+3/4'
  22  '-y+1/2, -x+1/2, -z+1/2'
  23  '-x, y+1/2, -z+1/4'
  24  'y, x, -z'
  25  '-x+1/2, -y, -z+3/4'
  26  'y+1/2, -x+1/2, -z+1/2'
  27  'x, y+1/2, -z+1/4'
  28  '-y, x, -z'
  29  '-x+1/2, y+1/2, z+1/2'
  30  'y+1/2, x, z+3/4'
  31  'x, -y, z'
  32  '-y, -x+1/2, z+1/4'
loop_
 _atom_site_type_symbol
 _atom_site_label
 _atom_site_symmetry_multiplicity
 _atom_site_fract_x
 _atom_site_fract_y
 _atom_site_fract_z
 _atom_site_occupancy
  Cu  Cu0  4  0.00000000  0.00000000  0.00000000  1
  Au  Au1  4  0.00000000  0.00000000  0.50000000  1
# generated using pymatgen
data_ID_10
_symmetry_space_group_name_H-M   P4/mcc
_cell_length_a   4.61431250
_cell_length_b   4.61431250
_cell_length_c   17.81241862
_cell_angle_alpha   90.00000000
_cell_angle_beta   90.00000000
_cell_angle_gamma   90.00000000
_symmetry_Int_Tables_number   124
_chemical_formula_structural   CuAu
_cell_volume   379.25987727
_cell_formula_units_Z   8
loop_
 _symmetry_equiv_pos_site_id
 _symmetry_equiv_pos_as_xyz
  1  'x, y, z'
  2  '-x, -y, -z'
  3  '-y, x, z'
  4  'y, -x, -z'
  5  '-x, -y, z'
  6  'x, y, -z'
  7  'y, -x, z'
  8  '-y, x, -z'
  9  'x, -y, -z+1/2'
  10  '-x, y, z+1/2'
  11  '-y, -x, -z+1/2'
  12  'y, x, z+1/2'
  13  '-x, y, -z+1/2'
  14  'x, -y, z+1/2'
  15  'y, x, -z+1/2'
  16  '-y, -x, z+1/2'
loop_
 _atom_site_type_symbol
 _atom_site_label
 _atom_site_symmetry_multiplicity
 _atom_site_fract_x
 _atom_site_fract_y
 _atom_site_fract_z
 _atom_site_occupancy
  Cu  Cu0  8  0.18354887  0.31324800  0.50000000  1
  Au  Au1  4  0.50000000  0.50000000  0.10940374  1
  Au  Au2  2  0.00000000  0.00000000  0.25000000  1
  Au  Au3  2  0.50000000  0.50000000  0.25000000  1
# generated using pymatgen
data_ID_11
_symmetry_space_group_name_H-M   P4/mmm
_cell_length_a   2.78922769
_cell_length_b   2.78922769
_cell_length_c   3.59703866
_cell_angle_alpha   90.00000000
_cell_angle_beta   90.00000000
_cell_angle_gamma   90.00000000
_symmetry_Int_Tables_number   123
_chemical_formula_structural   CuAu
_cell_volume   27.98420933
_cell_formula_units_Z   1
loop_
 _symmetry_equiv_pos_site_id
 _symmetry_equiv_pos_as_xyz
  1  'x, y, z'
  2  '-x, -y, -z'
  3  '-y, x, z'
  4  'y, -x, -z'
  5  '-x, -y, z'
  6  'x, y, -z'
  7  'y, -x, z'
  8  '-y, x, -z'
  9  'x, -y, -z'
  10  '-x, y, z'
  11  '-y, -x, -z'
  12  'y, x, z'
  13  '-x, y, -z'
  14  'x, -y, z'
  15  'y, x, -z'
  16  '-y, -x, z'
loop_
 _atom_site_type_symbol
 _atom_site_label
 _atom_site_symmetry_multiplicity
 _atom_site_fract_x
 _atom_site_fract_y
 _atom_site_fract_z
 _atom_site_occupancy
  Cu  Cu0  1  0.00000000  0.00000000  0.00000000  1
  Au  Au1  1  0.50000000  0.50000000  0.50000000  1
# generated using pymatgen
data_ID_12
_symmetry_space_group_name_H-M   P4_2/m
_cell_length_a   5.09362206
_cell_length_b   5.09362206
_cell_length_c   4.68520223
_cell_angle_alpha   90.00000000
_cell_angle_beta   90.00000000
_cell_angle_gamma   90.00000000
_symmetry_Int_Tables_number   84
_chemical_formula_structural   CuAu
_cell_volume   121.55750505
_cell_formula_units_Z   4
loop_
 _symmetry_equiv_pos_site_id
 _symmetry_equiv_pos_as_xyz
  1  'x, y, z'
  2  '-x, -y, -z'
  3  '-y, x, z+1/2'
  4  'y, -x, -z+1/2'
  5  '-x, -y, z'
  6  'x, y, -z'
  7  'y, -x, z+1/2'
  8  '-y, x, -z+1/2'
loop_
 _atom_site_type_symbol
 _atom_site_label
 _atom_site_symmetry_multiplicity
 _atom_site_fract_x
 _atom_site_fract_y
 _atom_site_fract_z
 _atom_site_occupancy
  Cu  Cu0  2  0.00000000  0.50000000  0.50000000  1
  Cu  Cu1  2  0.50000000  0.50000000  0.00000000  1
  Au  Au2  4  0.02765163  0.75021324  0.00000000  1
# generated using pymatgen
data_ID_13
_symmetry_space_group_name_H-M   P4/mmm
_cell_length_a   2.79304832
_cell_length_b   2.79304832
_cell_length_c   3.58705759
_cell_angle_alpha   90.00000000
_cell_angle_beta   90.00000000
_cell_angle_gamma   90.00000000
_symmetry_Int_Tables_number   123
_chemical_formula_structural   CuAu
_cell_volume   27.98306278
_cell_formula_units_Z   1
loop_
 _symmetry_equiv_pos_site_id
 _symmetry_equiv_pos_as_xyz
  1  'x, y, z'
  2  '-x, -y, -z'
  3  '-y, x, z'
  4  'y, -x, -z'
  5  '-x, -y, z'
  6  'x, y, -z'
  7  'y, -x, z'
  8  '-y, x, -z'
  9  'x, -y, -z'
  10  '-x, y, z'
  11  '-y, -x, -z'
  12  'y, x, z'
  13  '-x, y, -z'
  14  'x, -y, z'
  15  'y, x, -z'
  16  '-y, -x, z'
loop_
 _atom_site_type_symbol
 _atom_site_label
 _atom_site_symmetry_multiplicity
 _atom_site_fract_x
 _atom_site_fract_y
 _atom_site_fract_z
 _atom_site_occupancy
  Cu  Cu0  1  0.00000000  0.00000000  0.00000000  1
  Au  Au1  1  0.50000000  0.50000000  0.50000000  1
# generated using pymatgen
data_ID_14
_symmetry_space_group_name_H-M   Pm-3m
_cell_length_a   3.02638602
_cell_length_b   3.02638602
_cell_length_c   3.02638602
_cell_angle_alpha   90.00000000
_cell_angle_beta   90.00000000
_cell_angle_gamma   90.00000000
_symmetry_Int_Tables_number   221
_chemical_formula_structural   CuAu
_cell_volume   27.71870699
_cell_formula_units_Z   1
loop_
 _symmetry_equiv_pos_site_id
 _symmetry_equiv_pos_as_xyz
  1  'x, y, z'
  2  '-x, -y, -z'
  3  '-y, x, z'
  4  'y, -x, -z'
  5  '-x, -y, z'
  6  'x, y, -z'
  7  'y, -x, z'
  8  '-y, x, -z'
  9  'x, -y, -z'
  10  '-x, y, z'
  11  '-y, -x, -z'
  12  'y, x, z'
  13  '-x, y, -z'
  14  'x, -y, z'
  15  'y, x, -z'
  16  '-y, -x, z'
  17  'z, x, y'
  18  '-z, -x, -y'
  19  'z, -y, x'
  20  '-z, y, -x'
  21  'z, -x, -y'
  22  '-z, x, y'
  23  'z, y, -x'
  24  '-z, -y, x'
  25  '-z, x, -y'
  26  'z, -x, y'
  27  '-z, -y, -x'
  28  'z, y, x'
  29  '-z, -x, y'
  30  'z, x, -y'
  31  '-z, y, x'
  32  'z, -y, -x'
  33  'y, z, x'
  34  '-y, -z, -x'
  35  'x, z, -y'
  36  '-x, -z, y'
  37  '-y, z, -x'
  38  'y, -z, x'
  39  '-x, z, y'
  40  'x, -z, -y'
  41  '-y, -z, x'
  42  'y, z, -x'
  43  '-x, -z, -y'
  44  'x, z, y'
  45  'y, -z, -x'
  46  '-y, z, x'
  47  'x, -z, y'
  48  '-x, z, -y'
loop_
 _atom_site_type_symbol
 _atom_site_label
 _atom_site_symmetry_multiplicity
 _atom_site_fract_x
 _atom_site_fract_y
 _atom_site_fract_z
 _atom_site_occupancy
  Cu  Cu0  1  0.00000000  0.00000000  0.00000000  1
  Au  Au1  1  0.50000000  0.50000000  0.50000000  1
# generated using pymatgen
data_ID_15
_symmetry_space_group_name_H-M   Cccm
_cell_length_a   7.21017632
_cell_length_b   7.39210665
_cell_length_c   8.93113078
_cell_angle_alpha   90.00000000
_cell_angle_beta   90.00000000
_cell_angle_gamma   90.00000000
_symmetry_Int_Tables_number   66
_chemical_formula_structural   CuAu
_cell_volume   476.01491233
_cell_formula_units_Z   16
loop_
 _symmetry_equiv_pos_site_id
 _symmetry_equiv_pos_as_xyz
  1  'x, y, z'
  2  '-x, -y, -z'
  3  '-x, -y, z'
  4  'x, y, -z'
  5  'x, -y, -z+1/2'
  6  '-x, y, z+1/2'
  7  '-x, y, -z+1/2'
  8  'x, -y, z+1/2'
  9  'x+1/2, y+1/2, z'
  10  '-x+1/2, -y+1/2, -z'
  11  '-x+1/2, -y+1/2, z'
  12  'x+1/2, y+1/2, -z'
  13  'x+1/2, -y+1/2, -z+1/2'
  14  '-x+1/2, y+1/2, z+1/2'
  15  '-x+1/2, y+1/2, -z+1/2'
  16  'x+1/2, -y+1/2, z+1/2'
loop_
 _atom_site_type_symbol
 _atom_site_label
 _atom_site_symmetry_multiplicity
 _atom_site_fract_x
 _atom_site_fract_y
 _atom_site_fract_z
 _atom_site_occupancy
  Cu  Cu0  8  0.00000000  0.31239167  0.25000000  1
  Cu  Cu1  4  0.00000000  0.50000000  0.00000000  1
  Cu  Cu2  4  0.25000000  0.25000000  0.00000000  1
  Au  Au3  8  0.09315912  0.15682490  0.50000000  1
  Au  Au4  8  0.20099484  0.00000000  0.25000000  1
# generated using pymatgen
data_ID_16
_symmetry_space_group_name_H-M   P6_3/mmc
_cell_length_a   2.77254817
_cell_length_b   2.77254817
_cell_length_c   8.60970236
_cell_angle_alpha   90.00000000
_cell_angle_beta   90.00000000
_cell_angle_gamma   120.00000000
_symmetry_Int_Tables_number   194
_chemical_formula_structural   CuAu
_cell_volume   57.31614456
_cell_formula_units_Z   2
loop_
 _symmetry_equiv_pos_site_id
 _symmetry_equiv_pos_as_xyz
  1  'x, y, z'
  2  '-x, -y, -z'
  3  'x-y, x, z+1/2'
  4  '-x+y, -x, -z+1/2'
  5  '-y, x-y, z'
  6  'y, -x+y, -z'
  7  '-x, -y, z+1/2'
  8  'x, y, -z+1/2'
  9  '-x+y, -x, z'
  10  'x-y, x, -z'
  11  'y, -x+y, z+1/2'
  12  '-y, x-y, -z+1/2'
  13  '-y, -x, -z+1/2'
  14  'y, x, z+1/2'
  15  '-x, -x+y, -z'
  16  'x, x-y, z'
  17  '-x+y, y, -z+1/2'
  18  'x-y, -y, z+1/2'
  19  'y, x, -z'
  20  '-y, -x, z'
  21  'x, x-y, -z+1/2'
  22  '-x, -x+y, z+1/2'
  23  'x-y, -y, -z'
  24  '-x+y, y, z'
loop_
 _atom_site_type_symbol
 _atom_site_label
 _atom_site_symmetry_multiplicity
 _atom_site_fract_x
 _atom_site_fract_y
 _atom_site_fract_z
 _atom_site_occupancy
  Cu  Cu0  2  0.33333333  0.66666667  0.75000000  1
  Au  Au1  2  0.00000000  0.00000000  0.00000000  1
# generated using pymatgen
data_ID_17
_symmetry_space_group_name_H-M   Im-3m
_cell_length_a   11.16188609
_cell_length_b   11.16188609
_cell_length_c   11.16188609
_cell_angle_alpha   90.00000000
_cell_angle_beta   90.00000000
_cell_angle_gamma   90.00000000
_symmetry_Int_Tables_number   229
_chemical_formula_structural   CuAu
_cell_volume   1390.63372685
_cell_formula_units_Z   16
loop_
 _symmetry_equiv_pos_site_id
 _symmetry_equiv_pos_as_xyz
  1  'x, y, z'
  2  '-x, -y, -z'
  3  '-y, x, z'
  4  'y, -x, -z'
  5  '-x, -y, z'
  6  'x, y, -z'
  7  'y, -x, z'
  8  '-y, x, -z'
  9  'x, -y, -z'
  10  '-x, y, z'
  11  '-y, -x, -z'
  12  'y, x, z'
  13  '-x, y, -z'
  14  'x, -y, z'
  15  'y, x, -z'
  16  '-y, -x, z'
  17  'z, x, y'
  18  '-z, -x, -y'
  19  'z, -y, x'
  20  '-z, y, -x'
  21  'z, -x, -y'
  22  '-z, x, y'
  23  'z, y, -x'
  24  '-z, -y, x'
  25  '-z, x, -y'
  26  'z, -x, y'
  27  '-z, -y, -x'
  28  'z, y, x'
  29  '-z, -x, y'
  30  'z, x, -y'
  31  '-z, y, x'
  32  'z, -y, -x'
  33  'y, z, x'
  34  '-y, -z, -x'
  35  'x, z, -y'
  36  '-x, -z, y'
  37  '-y, z, -x'
  38  'y, -z, x'
  39  '-x, z, y'
  40  'x, -z, -y'
  41  '-y, -z, x'
  42  'y, z, -x'
  43  '-x, -z, -y'
  44  'x, z, y'
  45  'y, -z, -x'
  46  '-y, z, x'
  47  'x, -z, y'
  48  '-x, z, -y'
  49  'x+1/2, y+1/2, z+1/2'
  50  '-x+1/2, -y+1/2, -z+1/2'
  51  '-y+1/2, x+1/2, z+1/2'
  52  'y+1/2, -x+1/2, -z+1/2'
  53  '-x+1/2, -y+1/2, z+1/2'
  54  'x+1/2, y+1/2, -z+1/2'
  55  'y+1/2, -x+1/2, z+1/2'
  56  '-y+1/2, x+1/2, -z+1/2'
  57  'x+1/2, -y+1/2, -z+1/2'
  58  '-x+1/2, y+1/2, z+1/2'
  59  '-y+1/2, -x+1/2, -z+1/2'
  60  'y+1/2, x+1/2, z+1/2'
  61  '-x+1/2, y+1/2, -z+1/2'
  62  'x+1/2, -y+1/2, z+1/2'
  63  'y+1/2, x+1/2, -z+1/2'
  64  '-y+1/2, -x+1/2, z+1/2'
  65  'z+1/2, x+1/2, y+1/2'
  66  '-z+1/2, -x+1/2, -y+1/2'
  67  'z+1/2, -y+1/2, x+1/2'
  68  '-z+1/2, y+1/2, -x+1/2'
  69  'z+1/2, -x+1/2, -y+1/2'
  70  '-z+1/2, x+1/2, y+1/2'
  71  'z+1/2, y+1/2, -x+1/2'
  72  '-z+1/2, -y+1/2, x+1/2'
  73  '-z+1/2, x+1/2, -y+1/2'
  74  'z+1/2, -x+1/2, y+1/2'
  75  '-z+1/2, -y+1/2, -x+1/2'
  76  'z+1/2, y+1/2, x+1/2'
  77  '-z+1/2, -x+1/2, y+1/2'
  78  'z+1/2, x+1/2, -y+1/2'
  79  '-z+1/2, y+1/2, x+1/2'
  80  'z+1/2, -y+1/2, -x+1/2'
  81  'y+1/2, z+1/2, x+1/2'
  82  '-y+1/2, -z+1/2, -x+1/2'
  83  'x+1/2, z+1/2, -y+1/2'
  84  '-x+1/2, -z+1/2, y+1/2'
  85  '-y+1/2, z+1/2, -x+1/2'
  86  'y+1/2, -z+1/2, x+1/2'
  87  '-x+1/2, z+1/2, y+1/2'
  88  'x+1/2, -z+1/2, -y+1/2'
  89  '-y+1/2, -z+1/2, x+1/2'
  90  'y+1/2, z+1/2, -x+1/2'
  91  '-x+1/2, -z+1/2, -y+1/2'
  92  'x+1/2, z+1/2, y+1/2'
  93  'y+1/2, -z+1/2, -x+1/2'
  94  '-y+1/2, z+1/2, x+1/2'
  95  'x+1/2, -z+1/2, y+1/2'
  96  '-x+1/2, z+1/2, -y+1/2'
loop_
 _atom_site_type_symbol
 _atom_site_label
 _atom_site_symmetry_multiplicity
 _atom_site_fract_x
 _atom_site_fract_y
 _atom_site_fract_z
 _atom_site_occupancy
  Cu  Cu0  8  0.25000000  0.25000000  0.25000000  1
  Cu  Cu1  6  0.00000000  0.00000000  0.50000000  1
  Cu  Cu2  2  0.00000000  0.00000000  0.00000000  1
  Au  Au3  16  0.12418728  0.87581272  0.12418728  1
# generated using pymatgen
data_ID_18
_symmetry_space_group_name_H-M   P4_2/mmc
_cell_length_a   4.66735397
_cell_length_b   4.66735397
_cell_length_c   18.24396293
_cell_angle_alpha   90.00000000
_cell_angle_beta   90.00000000
_cell_angle_gamma   90.00000000
_symmetry_Int_Tables_number   131
_chemical_formula_structural   CuAu
_cell_volume   397.43001048
_cell_formula_units_Z   8
loop_
 _symmetry_equiv_pos_site_id
 _symmetry_equiv_pos_as_xyz
  1  'x, y, z'
  2  '-x, -y, -z'
  3  '-y, x, z+1/2'
  4  'y, -x, -z+1/2'
  5  '-x, -y, z'
  6  'x, y, -z'
  7  'y, -x, z+1/2'
  8  '-y, x, -z+1/2'
  9  'x, -y, -z'
  10  '-x, y, z'
  11  '-y, -x, -z+1/2'
  12  'y, x, z+1/2'
  13  '-x, y, -z'
  14  'x, -y, z'
  15  'y, x, -z+1/2'
  16  '-y, -x, z+1/2'
loop_
 _atom_site_type_symbol
 _atom_site_label
 _atom_site_symmetry_multiplicity
 _atom_site_fract_x
 _atom_site_fract_y
 _atom_site_fract_z
 _atom_site_occupancy
  Cu  Cu0  4  0.24833428  0.50000000  0.00000000  1
  Cu  Cu1  2  0.00000000  0.50000000  0.50000000  1
  Cu  Cu2  2  0.50000000  0.50000000  0.25000000  1
  Au  Au3  4  0.50000000  0.50000000  0.11832884  1
  Au  Au4  2  0.00000000  0.00000000  0.00000000  1
  Au  Au5  2  0.00000000  0.00000000  0.25000000  1
# generated using pymatgen
data_ID_19
_symmetry_space_group_name_H-M   R32
_cell_length_a   7.23208457
_cell_length_b   7.23208457
_cell_length_c   7.93290181
_cell_angle_alpha   90.00000000
_cell_angle_beta   90.00000000
_cell_angle_gamma   120.00000000
_symmetry_Int_Tables_number   155
_chemical_formula_structural   CuAu
_cell_volume   359.32687644
_cell_formula_units_Z   12
loop_
 _symmetry_equiv_pos_site_id
 _symmetry_equiv_pos_as_xyz
  1  'x, y, z'
  2  '-y, x-y, z'
  3  '-x+y, -x, z'
  4  'y, x, -z'
  5  'x-y, -y, -z'
  6  '-x, -x+y, -z'
  7  'x+2/3, y+1/3, z+1/3'
  8  '-y+2/3, x-y+1/3, z+1/3'
  9  '-x+y+2/3, -x+1/3, z+1/3'
  10  'y+2/3, x+1/3, -z+1/3'
  11  'x-y+2/3, -y+1/3, -z+1/3'
  12  '-x+2/3, -x+y+1/3, -z+1/3'
  13  'x+1/3, y+2/3, z+2/3'
  14  '-y+1/3, x-y+2/3, z+2/3'
  15  '-x+y+1/3, -x+2/3, z+2/3'
  16  'y+1/3, x+2/3, -z+2/3'
  17  'x-y+1/3, -y+2/3, -z+2/3'
  18  '-x+1/3, -x+y+2/3, -z+2/3'
loop_
 _atom_site_type_symbol
 _atom_site_label
 _atom_site_symmetry_multiplicity
 _atom_site_fract_x
 _atom_site_fract_y
 _atom_site_fract_z
 _atom_site_occupancy
  Cu  Cu0  9  0.00000000  0.36141856  0.00000000  1
  Cu  Cu1  3  0.00000000  0.00000000  0.00000000  1
  Au  Au2  9  0.00000000  0.62840547  0.50000000  1
  Au  Au3  3  0.00000000  0.00000000  0.50000000  1
# generated using pymatgen
data_ID_20
_symmetry_space_group_name_H-M   I-43d
_cell_length_a   10.89471379
_cell_length_b   10.89471379
_cell_length_c   10.89471379
_cell_angle_alpha   90.00000000
_cell_angle_beta   90.00000000
_cell_angle_gamma   90.00000000
_symmetry_Int_Tables_number   220
_chemical_formula_structural   CuAu
_cell_volume   1293.14574982
_cell_formula_units_Z   16
loop_
 _symmetry_equiv_pos_site_id
 _symmetry_equiv_pos_as_xyz
  1  'x, y, z'
  2  'y+1/4, -x+3/4, -z+1/4'
  3  '-x, -y+1/2, z'
  4  '-y+3/4, x+3/4, -z+1/4'
  5  'x, -y, -z+1/2'
  6  'y+1/4, x+1/4, z+1/4'
  7  '-x, y+1/2, -z+1/2'
  8  '-y+3/4, -x+1/4, z+1/4'
  9  'z, x, y'
  10  '-z+1/4, y+1/4, -x+3/4'
  11  'z, -x, -y+1/2'
  12  '-z+1/4, -y+3/4, x+3/4'
  13  '-z+1/2, x, -y'
  14  'z+1/4, y+1/4, x+1/4'
  15  '-z+1/2, -x, y+1/2'
  16  'z+1/4, -y+3/4, -x+1/4'
  17  'y, z, x'
  18  '-x+3/4, -z+1/4, y+1/4'
  19  '-y+1/2, z, -x'
  20  'x+3/4, -z+1/4, -y+3/4'
  21  '-y, -z+1/2, x'
  22  'x+1/4, z+1/4, y+1/4'
  23  'y+1/2, -z+1/2, -x'
  24  '-x+1/4, z+1/4, -y+3/4'
  25  'x+1/2, y+1/2, z+1/2'
  26  'y+3/4, -x+1/4, -z+3/4'
  27  '-x+1/2, -y, z+1/2'
  28  '-y+1/4, x+1/4, -z+3/4'
  29  'x+1/2, -y+1/2, -z'
  30  'y+3/4, x+3/4, z+3/4'
  31  '-x+1/2, y, -z'
  32  '-y+1/4, -x+3/4, z+3/4'
  33  'z+1/2, x+1/2, y+1/2'
  34  '-z+3/4, y+3/4, -x+1/4'
  35  'z+1/2, -x+1/2, -y'
  36  '-z+3/4, -y+1/4, x+1/4'
  37  '-z, x+1/2, -y+1/2'
  38  'z+3/4, y+3/4, x+3/4'
  39  '-z, -x+1/2, y'
  40  'z+3/4, -y+1/4, -x+3/4'
  41  'y+1/2, z+1/2, x+1/2'
  42  '-x+1/4, -z+3/4, y+3/4'
  43  '-y, z+1/2, -x+1/2'
  44  'x+1/4, -z+3/4, -y+1/4'
  45  '-y+1/2, -z, x+1/2'
  46  'x+3/4, z+3/4, y+3/4'
  47  'y, -z, -x+1/2'
  48  '-x+3/4, z+3/4, -y+1/4'
loop_
 _atom_site_type_symbol
 _atom_site_label
 _atom_site_symmetry_multiplicity
 _atom_site_fract_x
 _atom_site_fract_y
 _atom_site_fract_z
 _atom_site_occupancy
  Cu  Cu0  16  0.00683871  0.49316129  0.50683871  1
  Au  Au1  16  0.11825405  0.11825405  0.11825405  1
# generated using pymatgen
data_ID_21
_symmetry_space_group_name_H-M   I4_122
_cell_length_a   10.15201485
_cell_length_b   10.15201485
_cell_length_c   5.32059041
_cell_angle_alpha   90.00000000
_cell_angle_beta   90.00000000
_cell_angle_gamma   90.00000000
_symmetry_Int_Tables_number   98
_chemical_formula_structural   CuAu
_cell_volume   548.35816746
_cell_formula_units_Z   16
loop_
 _symmetry_equiv_pos_site_id
 _symmetry_equiv_pos_as_xyz
  1  'x, y, z'
  2  '-y, x+1/2, z+1/4'
  3  '-x+1/2, -y+1/2, z+1/2'
  4  'y+1/2, -x, z+3/4'
  5  'x, -y+1/2, -z+1/4'
  6  '-y, -x, -z'
  7  '-x+1/2, y, -z+3/4'
  8  'y+1/2, x+1/2, -z+1/2'
  9  'x+1/2, y+1/2, z+1/2'
  10  '-y+1/2, x, z+3/4'
  11  '-x, -y, z'
  12  'y, -x+1/2, z+1/4'
  13  'x+1/2, -y, -z+3/4'
  14  '-y+1/2, -x+1/2, -z+1/2'
  15  '-x, y+1/2, -z+1/4'
  16  'y, x, -z'
loop_
 _atom_site_type_symbol
 _atom_site_label
 _atom_site_symmetry_multiplicity
 _atom_site_fract_x
 _atom_site_fract_y
 _atom_site_fract_z
 _atom_site_occupancy
  Cu  Cu0  8  0.15784509  0.15784509  0.50000000  1
  Cu  Cu1  4  0.00000000  0.00000000  0.00000000  1
  Cu  Cu2  4  0.00000000  0.00000000  0.50000000  1
  Au  Au3  16  0.07327318  0.74447340  0.37689745  1
# generated using pymatgen
data_ID_22
_symmetry_space_group_name_H-M   P4_122
_cell_length_a   6.15657806
_cell_length_b   6.15657806
_cell_length_c   7.02743450
_cell_angle_alpha   90.00000000
_cell_angle_beta   90.00000000
_cell_angle_gamma   90.00000000
_symmetry_Int_Tables_number   91
_chemical_formula_structural   CuAu
_cell_volume   266.36403598
_cell_formula_units_Z   8
loop_
 _symmetry_equiv_pos_site_id
 _symmetry_equiv_pos_as_xyz
  1  'x, y, z'
  2  '-y, x, z+1/4'
  3  '-x, -y, z+1/2'
  4  'y, -x, z+3/4'
  5  'x, -y, -z+1/2'
  6  '-y, -x, -z+1/4'
  7  '-x, y, -z'
  8  'y, x, -z+3/4'
loop_
 _atom_site_type_symbol
 _atom_site_label
 _atom_site_symmetry_multiplicity
 _atom_site_fract_x
 _atom_site_fract_y
 _atom_site_fract_z
 _atom_site_occupancy
  Cu  Cu0  4  0.00000000  0.43672320  0.00000000  1
  Cu  Cu1  4  0.33061728  0.33061728  0.37500000  1
  Au  Au2  8  0.09241037  0.22610499  0.68745150  1
# generated using pymatgen
data_ID_23
_symmetry_space_group_name_H-M   P6_3mc
_cell_length_a   5.24125176
_cell_length_b   5.24125176
_cell_length_c   13.69077771
_cell_angle_alpha   90.00000000
_cell_angle_beta   90.00000000
_cell_angle_gamma   120.00000000
_symmetry_Int_Tables_number   186
_chemical_formula_structural   CuAu
_cell_volume   325.70827614
_cell_formula_units_Z   8
loop_
 _symmetry_equiv_pos_site_id
 _symmetry_equiv_pos_as_xyz
  1  'x, y, z'
  2  'x-y, x, z+1/2'
  3  '-y, x-y, z'
  4  '-x, -y, z+1/2'
  5  '-x+y, -x, z'
  6  'y, -x+y, z+1/2'
  7  'y, x, z+1/2'
  8  'x, x-y, z'
  9  'x-y, -y, z+1/2'
  10  '-y, -x, z'
  11  '-x, -x+y, z+1/2'
  12  '-x+y, y, z'
loop_
 _atom_site_type_symbol
 _atom_site_label
 _atom_site_symmetry_multiplicity
 _atom_site_fract_x
 _atom_site_fract_y
 _atom_site_fract_z
 _atom_site_occupancy
  Cu  Cu0  2  0.00000000  0.00000000  0.35492127  1
  Cu  Cu1  2  0.33333333  0.66666667  0.04065219  1
  Cu  Cu2  2  0.33333333  0.66666667  0.60394518  1
  Cu  Cu3  2  0.33333333  0.66666667  0.78097262  1
  Au  Au4  6  0.16741995  0.83258005  0.19978587  1
  Au  Au5  2  0.00000000  0.00000000  0.03685215  1
# generated using pymatgen
data_ID_24
_symmetry_space_group_name_H-M   P4_222
_cell_length_a   9.11890419
_cell_length_b   9.11890419
_cell_length_c   4.34156950
_cell_angle_alpha   90.00000000
_cell_angle_beta   90.00000000
_cell_angle_gamma   90.00000000
_symmetry_Int_Tables_number   93
_chemical_formula_structural   CuAu
_cell_volume   361.02066619
_cell_formula_units_Z   8
loop_
 _symmetry_equiv_pos_site_id
 _symmetry_equiv_pos_as_xyz
  1  'x, y, z'
  2  '-y, x, z+1/2'
  3  '-x, -y, z'
  4  'y, -x, z+1/2'
  5  'x, -y, -z'
  6  '-y, -x, -z+1/2'
  7  '-x, y, -z'
  8  'y, x, -z+1/2'
loop_
 _atom_site_type_symbol
 _atom_site_label
 _atom_site_symmetry_multiplicity
 _atom_site_fract_x
 _atom_site_fract_y
 _atom_site_fract_z
 _atom_site_occupancy
  Cu  Cu0  4  0.00000000  0.25024429  0.50000000  1
  Cu  Cu1  2  0.00000000  0.00000000  0.00000000  1
  Cu  Cu2  2  0.00000000  0.50000000  0.50000000  1
  Au  Au3  4  0.25292245  0.25292245  0.75000000  1
  Au  Au4  4  0.35266631  0.50000000  0.00000000  1
# generated using pymatgen
data_ID_25
_symmetry_space_group_name_H-M   I4_1/amd
_cell_length_a   4.34691486
_cell_length_b   4.34691486
_cell_length_c   6.08602207
_cell_angle_alpha   90.00000000
_cell_angle_beta   90.00000000
_cell_angle_gamma   90.00000000
_symmetry_Int_Tables_number   141
_chemical_formula_structural   CuAu
_cell_volume   114.99945745
_cell_formula_units_Z   4
loop_
 _symmetry_equiv_pos_site_id
 _symmetry_equiv_pos_as_xyz
  1  'x, y, z'
  2  '-y, x+1/2, z+1/4'
  3  '-x+1/2, -y+1/2, z+1/2'
  4  'y+1/2, -x, z+3/4'
  5  'x, -y+1/2, -z+1/4'
  6  '-y, -x, -z'
  7  '-x+1/2, y, -z+3/4'
  8  'y+1/2, x+1/2, -z+1/2'
  9  '-x, -y+1/2, -z+1/4'
  10  'y, -x, -z'
  11  'x+1/2, y, -z+3/4'
  12  '-y+1/2, x+1/2, -z+1/2'
  13  '-x, y, z'
  14  'y, x+1/2, z+1/4'
  15  'x+1/2, -y+1/2, z+1/2'
  16  '-y+1/2, -x, z+3/4'
  17  'x+1/2, y+1/2, z+1/2'
  18  '-y+1/2, x, z+3/4'
  19  '-x, -y, z'
  20  'y, -x+1/2, z+1/4'
  21  'x+1/2, -y, -z+3/4'
  22  '-y+1/2, -x+1/2, -z+1/2'
  23  '-x, y+1/2, -z+1/4'
  24  'y, x, -z'
  25  '-x+1/2, -y, -z+3/4'
  26  'y+1/2, -x+1/2, -z+1/2'
  27  'x, y+1/2, -z+1/4'
  28  '-y, x, -z'
  29  '-x+1/2, y+1/2, z+1/2'
  30  'y+1/2, x, z+3/4'
  31  'x, -y, z'
  32  '-y, -x+1/2, z+1/4'
loop_
 _atom_site_type_symbol
 _atom_site_label
 _atom_site_symmetry_multiplicity
 _atom_site_fract_x
 _atom_site_fract_y
 _atom_site_fract_z
 _atom_site_occupancy
  Cu  Cu0  4  0.00000000  0.00000000  0.50000000  1
  Au  Au1  4  0.00000000  0.00000000  0.00000000  1
# generated using pymatgen
data_ID_26
_symmetry_space_group_name_H-M   I4_1
_cell_length_a   4.95830819
_cell_length_b   4.95830819
_cell_length_c   24.53425790
_cell_angle_alpha   90.00000000
_cell_angle_beta   90.00000000
_cell_angle_gamma   90.00000000
_symmetry_Int_Tables_number   80
_chemical_formula_structural   CuAu
_cell_volume   603.17031813
_cell_formula_units_Z   16
loop_
 _symmetry_equiv_pos_site_id
 _symmetry_equiv_pos_as_xyz
  1  'x, y, z'
  2  '-y, x+1/2, z+1/4'
  3  '-x+1/2, -y+1/2, z+1/2'
  4  'y+1/2, -x, z+3/4'
  5  'x+1/2, y+1/2, z+1/2'
  6  '-y+1/2, x, z+3/4'
  7  '-x, -y, z'
  8  'y, -x+1/2, z+1/4'
loop_
 _atom_site_type_symbol
 _atom_site_label
 _atom_site_symmetry_multiplicity
 _atom_site_fract_x
 _atom_site_fract_y
 _atom_site_fract_z
 _atom_site_occupancy
  Cu  Cu0  8  0.06555480  0.25411320  0.67754353  1
  Cu  Cu1  8  0.13537905  0.27016378  0.02394385  1
  Au  Au2  8  0.14130230  0.72653326  0.49962532  1
  Au  Au3  4  0.00000000  0.00000000  0.58905142  1
  Au  Au4  4  0.00000000  0.00000000  0.92831793  1
# generated using pymatgen
data_ID_27
_symmetry_space_group_name_H-M   Pm-3m
_cell_length_a   3.02766538
_cell_length_b   3.02766538
_cell_length_c   3.02766538
_cell_angle_alpha   90.00000000
_cell_angle_beta   90.00000000
_cell_angle_gamma   90.00000000
_symmetry_Int_Tables_number   221
_chemical_formula_structural   CuAu
_cell_volume   27.75387489
_cell_formula_units_Z   1
loop_
 _symmetry_equiv_pos_site_id
 _symmetry_equiv_pos_as_xyz
  1  'x, y, z'
  2  '-x, -y, -z'
  3  '-y, x, z'
  4  'y, -x, -z'
  5  '-x, -y, z'
  6  'x, y, -z'
  7  'y, -x, z'
  8  '-y, x, -z'
  9  'x, -y, -z'
  10  '-x, y, z'
  11  '-y, -x, -z'
  12  'y, x, z'
  13  '-x, y, -z'
  14  'x, -y, z'
  15  'y, x, -z'
  16  '-y, -x, z'
  17  'z, x, y'
  18  '-z, -x, -y'
  19  'z, -y, x'
  20  '-z, y, -x'
  21  'z, -x, -y'
  22  '-z, x, y'
  23  'z, y, -x'
  24  '-z, -y, x'
  25  '-z, x, -y'
  26  'z, -x, y'
  27  '-z, -y, -x'
  28  'z, y, x'
  29  '-z, -x, y'
  30  'z, x, -y'
  31  '-z, y, x'
  32  'z, -y, -x'
  33  'y, z, x'
  34  '-y, -z, -x'
  35  'x, z, -y'
  36  '-x, -z, y'
  37  '-y, z, -x'
  38  'y, -z, x'
  39  '-x, z, y'
  40  'x, -z, -y'
  41  '-y, -z, x'
  42  'y, z, -x'
  43  '-x, -z, -y'
  44  'x, z, y'
  45  'y, -z, -x'
  46  '-y, z, x'
  47  'x, -z, y'
  48  '-x, z, -y'
loop_
 _atom_site_type_symbol
 _atom_site_label
 _atom_site_symmetry_multiplicity
 _atom_site_fract_x
 _atom_site_fract_y
 _atom_site_fract_z
 _atom_site_occupancy
  Cu  Cu0  1  0.50000000  0.50000000  0.50000000  1
  Au  Au1  1  0.00000000  0.00000000  0.00000000  1
# generated using pymatgen
data_ID_28
_symmetry_space_group_name_H-M   Ima2
_cell_length_a   7.66976333
_cell_length_b   6.24687884
_cell_length_c   11.82576012
_cell_angle_alpha   90.00000000
_cell_angle_beta   90.00000000
_cell_angle_gamma   90.00000000
_symmetry_Int_Tables_number   46
_chemical_formula_structural   CuAu
_cell_volume   566.59679086
_cell_formula_units_Z   16
loop_
 _symmetry_equiv_pos_site_id
 _symmetry_equiv_pos_as_xyz
  1  'x, y, z'
  2  '-x, -y, z'
  3  '-x+1/2, y, z'
  4  'x+1/2, -y, z'
  5  'x+1/2, y+1/2, z+1/2'
  6  '-x+1/2, -y+1/2, z+1/2'
  7  '-x, y+1/2, z+1/2'
  8  'x, -y+1/2, z+1/2'
loop_
 _atom_site_type_symbol
 _atom_site_label
 _atom_site_symmetry_multiplicity
 _atom_site_fract_x
 _atom_site_fract_y
 _atom_site_fract_z
 _atom_site_occupancy
  Cu  Cu0  8  0.09454054  0.84553477  0.46352651  1
  Cu  Cu1  8  0.09582983  0.15315314  0.28812363  1
  Au  Au2  4  0.00000000  0.00000000  0.09606186  1
  Au  Au3  4  0.00000000  0.00000000  0.65178673  1
  Au  Au4  4  0.00000000  0.00000000  0.87414598  1
  Au  Au5  4  0.25000000  0.22512898  0.50136130  1
# generated using pymatgen
data_ID_29
_symmetry_space_group_name_H-M   Cmme
_cell_length_a   10.29830687
_cell_length_b   13.29628016
_cell_length_c   4.65563038
_cell_angle_alpha   90.00000000
_cell_angle_beta   90.00000000
_cell_angle_gamma   90.00000000
_symmetry_Int_Tables_number   67
_chemical_formula_structural   CuAu
_cell_volume   637.49161965
_cell_formula_units_Z   16
loop_
 _symmetry_equiv_pos_site_id
 _symmetry_equiv_pos_as_xyz
  1  'x, y, z'
  2  '-x, -y, -z'
  3  '-x+1/2, -y, z'
  4  'x+1/2, y, -z'
  5  'x, -y, -z'
  6  '-x, y, z'
  7  '-x+1/2, y, -z'
  8  'x+1/2, -y, z'
  9  'x+1/2, y+1/2, z'
  10  '-x+1/2, -y+1/2, -z'
  11  '-x, -y+1/2, z'
  12  'x, y+1/2, -z'
  13  'x+1/2, -y+1/2, -z'
  14  '-x+1/2, y+1/2, z'
  15  '-x, y+1/2, -z'
  16  'x, -y+1/2, z'
loop_
 _atom_site_type_symbol
 _atom_site_label
 _atom_site_symmetry_multiplicity
 _atom_site_fract_x
 _atom_site_fract_y
 _atom_site_fract_z
 _atom_site_occupancy
  Cu  Cu0  4  0.00000000  0.00000000  0.00000000  1
  Cu  Cu1  4  0.25000000  0.00000000  0.00000000  1
  Cu  Cu2  4  0.25000000  0.00000000  0.50000000  1
  Cu  Cu3  4  0.25000000  0.25000000  0.00000000  1
  Au  Au4  16  0.12480282  0.14823009  0.64025741  1
# generated using pymatgen
data_ID_30
_symmetry_space_group_name_H-M   I4_1
_cell_length_a   4.84001692
_cell_length_b   4.84001692
_cell_length_c   23.53746043
_cell_angle_alpha   90.00000000
_cell_angle_beta   90.00000000
_cell_angle_gamma   90.00000000
_symmetry_Int_Tables_number   80
_chemical_formula_structural   CuAu
_cell_volume   551.38298876
_cell_formula_units_Z   16
loop_
 _symmetry_equiv_pos_site_id
 _symmetry_equiv_pos_as_xyz
  1  'x, y, z'
  2  '-y, x+1/2, z+1/4'
  3  '-x+1/2, -y+1/2, z+1/2'
  4  'y+1/2, -x, z+3/4'
  5  'x+1/2, y+1/2, z+1/2'
  6  '-y+1/2, x, z+3/4'
  7  '-x, -y, z'
  8  'y, -x+1/2, z+1/4'
loop_
 _atom_site_type_symbol
 _atom_site_label
 _atom_site_symmetry_multiplicity
 _atom_site_fract_x
 _atom_site_fract_y
 _atom_site_fract_z
 _atom_site_occupancy
  Cu  Cu0  8  0.12218838  0.75336285  0.08577416  1
  Cu  Cu1  4  0.00000000  0.00000000  0.63858173  1
  Cu  Cu2  4  0.00000000  0.00000000  0.74261689  1
  Au  Au3  8  0.09505269  0.24905536  0.18659605  1
  Au  Au4  8  0.12562773  0.25713539  0.54646164  1
# generated using pymatgen
data_ID_31
_symmetry_space_group_name_H-M   I422
_cell_length_a   12.48617963
_cell_length_b   12.48617963
_cell_length_c   4.65418444
_cell_angle_alpha   90.00000000
_cell_angle_beta   90.00000000
_cell_angle_gamma   90.00000000
_symmetry_Int_Tables_number   97
_chemical_formula_structural   CuAu
_cell_volume   725.60914411
_cell_formula_units_Z   16
loop_
 _symmetry_equiv_pos_site_id
 _symmetry_equiv_pos_as_xyz
  1  'x, y, z'
  2  '-y, x, z'
  3  '-x, -y, z'
  4  'y, -x, z'
  5  'x, -y, -z'
  6  '-y, -x, -z'
  7  '-x, y, -z'
  8  'y, x, -z'
  9  'x+1/2, y+1/2, z+1/2'
  10  '-y+1/2, x+1/2, z+1/2'
  11  '-x+1/2, -y+1/2, z+1/2'
  12  'y+1/2, -x+1/2, z+1/2'
  13  'x+1/2, -y+1/2, -z+1/2'
  14  '-y+1/2, -x+1/2, -z+1/2'
  15  '-x+1/2, y+1/2, -z+1/2'
  16  'y+1/2, x+1/2, -z+1/2'
loop_
 _atom_site_type_symbol
 _atom_site_label
 _atom_site_symmetry_multiplicity
 _atom_site_fract_x
 _atom_site_fract_y
 _atom_site_fract_z
 _atom_site_occupancy
  Cu  Cu0  8  0.13149911  0.36850089  0.75000000  1
  Cu  Cu1  4  0.00000000  0.50000000  0.25000000  1
  Cu  Cu2  2  0.00000000  0.00000000  0.00000000  1
  Cu  Cu3  2  0.00000000  0.00000000  0.50000000  1
  Au  Au4  8  0.00000000  0.22302687  0.00000000  1
  Au  Au5  8  0.20605616  0.20605616  0.00000000  1
# generated using pymatgen
data_ID_32
_symmetry_space_group_name_H-M   Fm-3m
_cell_length_a   10.20369632
_cell_length_b   10.20369632
_cell_length_c   10.20369632
_cell_angle_alpha   90.00000000
_cell_angle_beta   90.00000000
_cell_angle_gamma   90.00000000
_symmetry_Int_Tables_number   225
_chemical_formula_structural   CuAu
_cell_volume   1062.36211428
_cell_formula_units_Z   32
loop_
 _symmetry_equiv_pos_site_id
 _symmetry_equiv_pos_as_xyz
  1  'x, y, z'
  2  '-x, -y, -z'
  3  '-y, x, z'
  4  'y, -x, -z'
  5  '-x, -y, z'
  6  'x, y, -z'
  7  'y, -x, z'
  8  '-y, x, -z'
  9  'x, -y, -z'
  10  '-x, y, z'
  11  '-y, -x, -z'
  12  'y, x, z'
  13  '-x, y, -z'
  14  'x, -y, z'
  15  'y, x, -z'
  16  '-y, -x, z'
  17  'z, x, y'
  18  '-z, -x, -y'
  19  'z, -y, x'
  20  '-z, y, -x'
  21  'z, -x, -y'
  22  '-z, x, y'
  23  'z, y, -x'
  24  '-z, -y, x'
  25  '-z, x, -y'
  26  'z, -x, y'
  27  '-z, -y, -x'
  28  'z, y, x'
  29  '-z, -x, y'
  30  'z, x, -y'
  31  '-z, y, x'
  32  'z, -y, -x'
  33  'y, z, x'
  34  '-y, -z, -x'
  35  'x, z, -y'
  36  '-x, -z, y'
  37  '-y, z, -x'
  38  'y, -z, x'
  39  '-x, z, y'
  40  'x, -z, -y'
  41  '-y, -z, x'
  42  'y, z, -x'
  43  '-x, -z, -y'
  44  'x, z, y'
  45  'y, -z, -x'
  46  '-y, z, x'
  47  'x, -z, y'
  48  '-x, z, -y'
  49  'x+1/2, y+1/2, z'
  50  '-x+1/2, -y+1/2, -z'
  51  '-y+1/2, x+1/2, z'
  52  'y+1/2, -x+1/2, -z'
  53  '-x+1/2, -y+1/2, z'
  54  'x+1/2, y+1/2, -z'
  55  'y+1/2, -x+1/2, z'
  56  '-y+1/2, x+1/2, -z'
  57  'x+1/2, -y+1/2, -z'
  58  '-x+1/2, y+1/2, z'
  59  '-y+1/2, -x+1/2, -z'
  60  'y+1/2, x+1/2, z'
  61  '-x+1/2, y+1/2, -z'
  62  'x+1/2, -y+1/2, z'
  63  'y+1/2, x+1/2, -z'
  64  '-y+1/2, -x+1/2, z'
  65  'z+1/2, x+1/2, y'
  66  '-z+1/2, -x+1/2, -y'
  67  'z+1/2, -y+1/2, x'
  68  '-z+1/2, y+1/2, -x'
  69  'z+1/2, -x+1/2, -y'
  70  '-z+1/2, x+1/2, y'
  71  'z+1/2, y+1/2, -x'
  72  '-z+1/2, -y+1/2, x'
  73  '-z+1/2, x+1/2, -y'
  74  'z+1/2, -x+1/2, y'
  75  '-z+1/2, -y+1/2, -x'
  76  'z+1/2, y+1/2, x'
  77  '-z+1/2, -x+1/2, y'
  78  'z+1/2, x+1/2, -y'
  79  '-z+1/2, y+1/2, x'
  80  'z+1/2, -y+1/2, -x'
  81  'y+1/2, z+1/2, x'
  82  '-y+1/2, -z+1/2, -x'
  83  'x+1/2, z+1/2, -y'
  84  '-x+1/2, -z+1/2, y'
  85  '-y+1/2, z+1/2, -x'
  86  'y+1/2, -z+1/2, x'
  87  '-x+1/2, z+1/2, y'
  88  'x+1/2, -z+1/2, -y'
  89  '-y+1/2, -z+1/2, x'
  90  'y+1/2, z+1/2, -x'
  91  '-x+1/2, -z+1/2, -y'
  92  'x+1/2, z+1/2, y'
  93  'y+1/2, -z+1/2, -x'
  94  '-y+1/2, z+1/2, x'
  95  'x+1/2, -z+1/2, y'
  96  '-x+1/2, z+1/2, -y'
  97  'x+1/2, y, z+1/2'
  98  '-x+1/2, -y, -z+1/2'
  99  '-y+1/2, x, z+1/2'
  100  'y+1/2, -x, -z+1/2'
  101  '-x+1/2, -y, z+1/2'
  102  'x+1/2, y, -z+1/2'
  103  'y+1/2, -x, z+1/2'
  104  '-y+1/2, x, -z+1/2'
  105  'x+1/2, -y, -z+1/2'
  106  '-x+1/2, y, z+1/2'
  107  '-y+1/2, -x, -z+1/2'
  108  'y+1/2, x, z+1/2'
  109  '-x+1/2, y, -z+1/2'
  110  'x+1/2, -y, z+1/2'
  111  'y+1/2, x, -z+1/2'
  112  '-y+1/2, -x, z+1/2'
  113  'z+1/2, x, y+1/2'
  114  '-z+1/2, -x, -y+1/2'
  115  'z+1/2, -y, x+1/2'
  116  '-z+1/2, y, -x+1/2'
  117  'z+1/2, -x, -y+1/2'
  118  '-z+1/2, x, y+1/2'
  119  'z+1/2, y, -x+1/2'
  120  '-z+1/2, -y, x+1/2'
  121  '-z+1/2, x, -y+1/2'
  122  'z+1/2, -x, y+1/2'
  123  '-z+1/2, -y, -x+1/2'
  124  'z+1/2, y, x+1/2'
  125  '-z+1/2, -x, y+1/2'
  126  'z+1/2, x, -y+1/2'
  127  '-z+1/2, y, x+1/2'
  128  'z+1/2, -y, -x+1/2'
  129  'y+1/2, z, x+1/2'
  130  '-y+1/2, -z, -x+1/2'
  131  'x+1/2, z, -y+1/2'
  132  '-x+1/2, -z, y+1/2'
  133  '-y+1/2, z, -x+1/2'
  134  'y+1/2, -z, x+1/2'
  135  '-x+1/2, z, y+1/2'
  136  'x+1/2, -z, -y+1/2'
  137  '-y+1/2, -z, x+1/2'
  138  'y+1/2, z, -x+1/2'
  139  '-x+1/2, -z, -y+1/2'
  140  'x+1/2, z, y+1/2'
  141  'y+1/2, -z, -x+1/2'
  142  '-y+1/2, z, x+1/2'
  143  'x+1/2, -z, y+1/2'
  144  '-x+1/2, z, -y+1/2'
  145  'x, y+1/2, z+1/2'
  146  '-x, -y+1/2, -z+1/2'
  147  '-y, x+1/2, z+1/2'
  148  'y, -x+1/2, -z+1/2'
  149  '-x, -y+1/2, z+1/2'
  150  'x, y+1/2, -z+1/2'
  151  'y, -x+1/2, z+1/2'
  152  '-y, x+1/2, -z+1/2'
  153  'x, -y+1/2, -z+1/2'
  154  '-x, y+1/2, z+1/2'
  155  '-y, -x+1/2, -z+1/2'
  156  'y, x+1/2, z+1/2'
  157  '-x, y+1/2, -z+1/2'
  158  'x, -y+1/2, z+1/2'
  159  'y, x+1/2, -z+1/2'
  160  '-y, -x+1/2, z+1/2'
  161  'z, x+1/2, y+1/2'
  162  '-z, -x+1/2, -y+1/2'
  163  'z, -y+1/2, x+1/2'
  164  '-z, y+1/2, -x+1/2'
  165  'z, -x+1/2, -y+1/2'
  166  '-z, x+1/2, y+1/2'
  167  'z, y+1/2, -x+1/2'
  168  '-z, -y+1/2, x+1/2'
  169  '-z, x+1/2, -y+1/2'
  170  'z, -x+1/2, y+1/2'
  171  '-z, -y+1/2, -x+1/2'
  172  'z, y+1/2, x+1/2'
  173  '-z, -x+1/2, y+1/2'
  174  'z, x+1/2, -y+1/2'
  175  '-z, y+1/2, x+1/2'
  176  'z, -y+1/2, -x+1/2'
  177  'y, z+1/2, x+1/2'
  178  '-y, -z+1/2, -x+1/2'
  179  'x, z+1/2, -y+1/2'
  180  '-x, -z+1/2, y+1/2'
  181  '-y, z+1/2, -x+1/2'
  182  'y, -z+1/2, x+1/2'
  183  '-x, z+1/2, y+1/2'
  184  'x, -z+1/2, -y+1/2'
  185  '-y, -z+1/2, x+1/2'
  186  'y, z+1/2, -x+1/2'
  187  '-x, -z+1/2, -y+1/2'
  188  'x, z+1/2, y+1/2'
  189  'y, -z+1/2, -x+1/2'
  190  '-y, z+1/2, x+1/2'
  191  'x, -z+1/2, y+1/2'
  192  '-x, z+1/2, -y+1/2'
loop_
 _atom_site_type_symbol
 _atom_site_label
 _atom_site_symmetry_multiplicity
 _atom_site_fract_x
 _atom_site_fract_y
 _atom_site_fract_z
 _atom_site_occupancy
  Cu  Cu0  32  0.11912248  0.11912248  0.38087752  1
  Au  Au1  32  0.13208826  0.13208826  0.13208826  1
# generated using pymatgen
data_ID_33
_symmetry_space_group_name_H-M   Cmmm
_cell_length_a   5.08869885
_cell_length_b   8.80769807
_cell_length_c   2.65445891
_cell_angle_alpha   90.00000000
_cell_angle_beta   90.00000000
_cell_angle_gamma   90.00000000
_symmetry_Int_Tables_number   65
_chemical_formula_structural   CuAu
_cell_volume   118.97211336
_cell_formula_units_Z   4
loop_
 _symmetry_equiv_pos_site_id
 _symmetry_equiv_pos_as_xyz
  1  'x, y, z'
  2  '-x, -y, -z'
  3  '-x, -y, z'
  4  'x, y, -z'
  5  'x, -y, -z'
  6  '-x, y, z'
  7  '-x, y, -z'
  8  'x, -y, z'
  9  'x+1/2, y+1/2, z'
  10  '-x+1/2, -y+1/2, -z'
  11  '-x+1/2, -y+1/2, z'
  12  'x+1/2, y+1/2, -z'
  13  'x+1/2, -y+1/2, -z'
  14  '-x+1/2, y+1/2, z'
  15  '-x+1/2, y+1/2, -z'
  16  'x+1/2, -y+1/2, z'
loop_
 _atom_site_type_symbol
 _atom_site_label
 _atom_site_symmetry_multiplicity
 _atom_site_fract_x
 _atom_site_fract_y
 _atom_site_fract_z
 _atom_site_occupancy
  Cu  Cu0  4  0.25000000  0.25000000  0.00000000  1
  Au  Au1  2  0.00000000  0.00000000  0.00000000  1
  Au  Au2  2  0.00000000  0.50000000  0.50000000  1
# generated using pymatgen
data_ID_34
_symmetry_space_group_name_H-M   Pmmn
_cell_length_a   4.83488366
_cell_length_b   8.93801133
_cell_length_c   6.76941258
_cell_angle_alpha   90.00000000
_cell_angle_beta   90.00000000
_cell_angle_gamma   90.00000000
_symmetry_Int_Tables_number   59
_chemical_formula_structural   CuAu
_cell_volume   292.53505288
_cell_formula_units_Z   8
loop_
 _symmetry_equiv_pos_site_id
 _symmetry_equiv_pos_as_xyz
  1  'x, y, z'
  2  '-x, -y, z'
  3  'x+1/2, -y+1/2, -z'
  4  '-x+1/2, y+1/2, -z'
  5  '-x+1/2, -y+1/2, -z'
  6  'x+1/2, y+1/2, -z'
  7  '-x, y, z'
  8  'x, -y, z'
loop_
 _atom_site_type_symbol
 _atom_site_label
 _atom_site_symmetry_multiplicity
 _atom_site_fract_x
 _atom_site_fract_y
 _atom_site_fract_z
 _atom_site_occupancy
  Cu  Cu0  4  0.00000000  0.23494443  0.16869894  1
  Cu  Cu1  4  0.25000000  0.25000000  0.50000000  1
  Au  Au2  4  0.00000000  0.14650465  0.80733984  1
  Au  Au3  2  0.00000000  0.00000000  0.42512492  1
  Au  Au4  2  0.00000000  0.50000000  0.35144565  1
# generated using pymatgen
data_ID_35
_symmetry_space_group_name_H-M   Ibam
_cell_length_a   6.84666142
_cell_length_b   9.10580876
_cell_length_c   7.75343499
_cell_angle_alpha   90.00000000
_cell_angle_beta   90.00000000
_cell_angle_gamma   90.00000000
_symmetry_Int_Tables_number   72
_chemical_formula_structural   CuAu
_cell_volume   483.38317119
_cell_formula_units_Z   16
loop_
 _symmetry_equiv_pos_site_id
 _symmetry_equiv_pos_as_xyz
  1  'x, y, z'
  2  '-x, -y, -z'
  3  '-x, -y, z'
  4  'x, y, -z'
  5  'x, -y, -z+1/2'
  6  '-x, y, z+1/2'
  7  '-x, y, -z+1/2'
  8  'x, -y, z+1/2'
  9  'x+1/2, y+1/2, z+1/2'
  10  '-x+1/2, -y+1/2, -z+1/2'
  11  '-x+1/2, -y+1/2, z+1/2'
  12  'x+1/2, y+1/2, -z+1/2'
  13  'x+1/2, -y+1/2, -z'
  14  '-x+1/2, y+1/2, z'
  15  '-x+1/2, y+1/2, -z'
  16  'x+1/2, -y+1/2, z'
loop_
 _atom_site_type_symbol
 _atom_site_label
 _atom_site_symmetry_multiplicity
 _atom_site_fract_x
 _atom_site_fract_y
 _atom_site_fract_z
 _atom_site_occupancy
  Cu  Cu0  16  0.14647455  0.10492595  0.34527259  1
  Au  Au1  8  0.00000000  0.35339465  0.25000000  1
  Au  Au2  8  0.19412288  0.16042224  0.00000000  1
# generated using pymatgen
data_ID_36
_symmetry_space_group_name_H-M   Imm2
_cell_length_a   7.94693469
_cell_length_b   8.37325554
_cell_length_c   8.66690033
_cell_angle_alpha   90.00000000
_cell_angle_beta   90.00000000
_cell_angle_gamma   90.00000000
_symmetry_Int_Tables_number   44
_chemical_formula_structural   CuAu
_cell_volume   576.71041089
_cell_formula_units_Z   16
loop_
 _symmetry_equiv_pos_site_id
 _symmetry_equiv_pos_as_xyz
  1  'x, y, z'
  2  '-x, -y, z'
  3  '-x, y, z'
  4  'x, -y, z'
  5  'x+1/2, y+1/2, z+1/2'
  6  '-x+1/2, -y+1/2, z+1/2'
  7  '-x+1/2, y+1/2, z+1/2'
  8  'x+1/2, -y+1/2, z+1/2'
loop_
 _atom_site_type_symbol
 _atom_site_label
 _atom_site_symmetry_multiplicity
 _atom_site_fract_x
 _atom_site_fract_y
 _atom_site_fract_z
 _atom_site_occupancy
  Cu  Cu0  8  0.22147654  0.14709266  0.67821600  1
  Cu  Cu1  4  0.00000000  0.15688039  0.23382580  1
  Cu  Cu2  2  0.00000000  0.00000000  0.50450511  1
  Cu  Cu3  2  0.00000000  0.50000000  0.21756155  1
  Au  Au4  8  0.16940477  0.15753856  0.97601842  1
  Au  Au5  4  0.00000000  0.32599704  0.47374366  1
  Au  Au6  4  0.00000000  0.34624729  0.78040175  1
# generated using pymatgen
data_ID_37
_symmetry_space_group_name_H-M   Cmm2
_cell_length_a   5.28520450
_cell_length_b   11.21352833
_cell_length_c   12.51811734
_cell_angle_alpha   90.00000000
_cell_angle_beta   90.00000000
_cell_angle_gamma   90.00000000
_symmetry_Int_Tables_number   35
_chemical_formula_structural   CuAu
_cell_volume   741.89611838
_cell_formula_units_Z   16
loop_
 _symmetry_equiv_pos_site_id
 _symmetry_equiv_pos_as_xyz
  1  'x, y, z'
  2  '-x, -y, z'
  3  '-x, y, z'
  4  'x, -y, z'
  5  'x+1/2, y+1/2, z'
  6  '-x+1/2, -y+1/2, z'
  7  '-x+1/2, y+1/2, z'
  8  'x+1/2, -y+1/2, z'
loop_
 _atom_site_type_symbol
 _atom_site_label
 _atom_site_symmetry_multiplicity
 _atom_site_fract_x
 _atom_site_fract_y
 _atom_site_fract_z
 _atom_site_occupancy
  Cu  Cu0  4  0.00000000  0.32374655  0.10211736  1
  Cu  Cu1  4  0.24709219  0.00000000  0.48901763  1
  Cu  Cu2  4  0.24734359  0.00000000  0.16380911  1
  Cu  Cu3  2  0.00000000  0.50000000  0.32605938  1
  Cu  Cu4  2  0.00000000  0.50000000  0.98291797  1
  Au  Au5  8  0.24834834  0.37432978  0.83217325  1
  Au  Au6  4  0.00000000  0.12013600  0.02110472  1
  Au  Au7  2  0.00000000  0.00000000  0.66766855  1
  Au  Au8  2  0.00000000  0.50000000  0.66650448  1
# generated using pymatgen
data_ID_38
_symmetry_space_group_name_H-M   Fd-3m
_cell_length_a   6.12591873
_cell_length_b   6.12591873
_cell_length_c   6.12591873
_cell_angle_alpha   90.00000000
_cell_angle_beta   90.00000000
_cell_angle_gamma   90.00000000
_symmetry_Int_Tables_number   227
_chemical_formula_structural   CuAu
_cell_volume   229.88661891
_cell_formula_units_Z   8
loop_
 _symmetry_equiv_pos_site_id
 _symmetry_equiv_pos_as_xyz
  1  'x, y, z'
  2  '-y+1/4, x+1/4, z+1/4'
  3  '-x, -y+1/2, z+1/2'
  4  'y+3/4, -x+1/4, z+3/4'
  5  'x, -y, -z'
  6  '-y+1/4, -x+3/4, -z+3/4'
  7  '-x, y+1/2, -z+1/2'
  8  'y+3/4, x+3/4, -z+1/4'
  9  'z, x, y'
  10  'z+1/4, -y+1/4, x+1/4'
  11  'z+1/2, -x, -y+1/2'
  12  'z+3/4, y+3/4, -x+1/4'
  13  '-z, x, -y'
  14  '-z+3/4, -y+1/4, -x+3/4'
  15  '-z+1/2, -x, y+1/2'
  16  '-z+1/4, y+3/4, x+3/4'
  17  'y, z, x'
  18  'x+1/4, z+1/4, -y+1/4'
  19  '-y+1/2, z+1/2, -x'
  20  '-x+1/4, z+3/4, y+3/4'
  21  '-y, -z, x'
  22  '-x+3/4, -z+3/4, -y+1/4'
  23  'y+1/2, -z+1/2, -x'
  24  'x+3/4, -z+1/4, y+3/4'
  25  '-x+1/4, -y+1/4, -z+1/4'
  26  'y, -x, -z'
  27  'x+1/4, y+3/4, -z+3/4'
  28  '-y+1/2, x, -z+1/2'
  29  '-x+1/4, y+1/4, z+1/4'
  30  'y, x+1/2, z+1/2'
  31  'x+1/4, -y+3/4, z+3/4'
  32  '-y+1/2, -x+1/2, z'
  33  '-z+1/4, -x+1/4, -y+1/4'
  34  '-z, y, -x'
  35  '-z+3/4, x+1/4, y+3/4'
  36  '-z+1/2, -y+1/2, x'
  37  'z+1/4, -x+1/4, y+1/4'
  38  'z+1/2, y, x+1/2'
  39  'z+3/4, x+1/4, -y+3/4'
  40  'z, -y+1/2, -x+1/2'
  41  '-y+1/4, -z+1/4, -x+1/4'
  42  '-x, -z, y'
  43  'y+3/4, -z+3/4, x+1/4'
  44  'x, -z+1/2, -y+1/2'
  45  'y+1/4, z+1/4, -x+1/4'
  46  'x+1/2, z+1/2, y'
  47  '-y+3/4, z+3/4, x+1/4'
  48  '-x+1/2, z, -y+1/2'
  49  'x+1/2, y+1/2, z'
  50  '-y+3/4, x+3/4, z+1/4'
  51  '-x+1/2, -y, z+1/2'
  52  'y+1/4, -x+3/4, z+3/4'
  53  'x+1/2, -y+1/2, -z'
  54  '-y+3/4, -x+1/4, -z+3/4'
  55  '-x+1/2, y, -z+1/2'
  56  'y+1/4, x+1/4, -z+1/4'
  57  'z+1/2, x+1/2, y'
  58  'z+3/4, -y+3/4, x+1/4'
  59  'z, -x+1/2, -y+1/2'
  60  'z+1/4, y+1/4, -x+1/4'
  61  '-z+1/2, x+1/2, -y'
  62  '-z+1/4, -y+3/4, -x+3/4'
  63  '-z, -x+1/2, y+1/2'
  64  '-z+3/4, y+1/4, x+3/4'
  65  'y+1/2, z+1/2, x'
  66  'x+3/4, z+3/4, -y+1/4'
  67  '-y, z, -x'
  68  '-x+3/4, z+1/4, y+3/4'
  69  '-y+1/2, -z+1/2, x'
  70  '-x+1/4, -z+1/4, -y+1/4'
  71  'y, -z, -x'
  72  'x+1/4, -z+3/4, y+3/4'
  73  '-x+3/4, -y+3/4, -z+1/4'
  74  'y+1/2, -x+1/2, -z'
  75  'x+3/4, y+1/4, -z+3/4'
  76  '-y, x+1/2, -z+1/2'
  77  '-x+3/4, y+3/4, z+1/4'
  78  'y+1/2, x, z+1/2'
  79  'x+3/4, -y+1/4, z+3/4'
  80  '-y, -x, z'
  81  '-z+3/4, -x+3/4, -y+1/4'
  82  '-z+1/2, y+1/2, -x'
  83  '-z+1/4, x+3/4, y+3/4'
  84  '-z, -y, x'
  85  'z+3/4, -x+3/4, y+1/4'
  86  'z, y+1/2, x+1/2'
  87  'z+1/4, x+3/4, -y+3/4'
  88  'z+1/2, -y, -x+1/2'
  89  '-y+3/4, -z+3/4, -x+1/4'
  90  '-x+1/2, -z+1/2, y'
  91  'y+1/4, -z+1/4, x+1/4'
  92  'x+1/2, -z, -y+1/2'
  93  'y+3/4, z+3/4, -x+1/4'
  94  'x, z, y'
  95  '-y+1/4, z+1/4, x+1/4'
  96  '-x, z+1/2, -y+1/2'
  97  'x+1/2, y, z+1/2'
  98  '-y+3/4, x+1/4, z+3/4'
  99  '-x+1/2, -y+1/2, z'
  100  'y+1/4, -x+1/4, z+1/4'
  101  'x+1/2, -y, -z+1/2'
  102  '-y+3/4, -x+3/4, -z+1/4'
  103  '-x+1/2, y+1/2, -z'
  104  'y+1/4, x+3/4, -z+3/4'
  105  'z+1/2, x, y+1/2'
  106  'z+3/4, -y+1/4, x+3/4'
  107  'z, -x, -y'
  108  'z+1/4, y+3/4, -x+3/4'
  109  '-z+1/2, x, -y+1/2'
  110  '-z+1/4, -y+1/4, -x+1/4'
  111  '-z, -x, y'
  112  '-z+3/4, y+3/4, x+1/4'
  113  'y+1/2, z, x+1/2'
  114  'x+3/4, z+1/4, -y+3/4'
  115  '-y, z+1/2, -x+1/2'
  116  '-x+3/4, z+3/4, y+1/4'
  117  '-y+1/2, -z, x+1/2'
  118  '-x+1/4, -z+3/4, -y+3/4'
  119  'y, -z+1/2, -x+1/2'
  120  'x+1/4, -z+1/4, y+1/4'
  121  '-x+3/4, -y+1/4, -z+3/4'
  122  'y+1/2, -x, -z+1/2'
  123  'x+3/4, y+3/4, -z+1/4'
  124  '-y, x, -z'
  125  '-x+3/4, y+1/4, z+3/4'
  126  'y+1/2, x+1/2, z'
  127  'x+3/4, -y+3/4, z+1/4'
  128  '-y, -x+1/2, z+1/2'
  129  '-z+3/4, -x+1/4, -y+3/4'
  130  '-z+1/2, y, -x+1/2'
  131  '-z+1/4, x+1/4, y+1/4'
  132  '-z, -y+1/2, x+1/2'
  133  'z+3/4, -x+1/4, y+3/4'
  134  'z, y, x'
  135  'z+1/4, x+1/4, -y+1/4'
  136  'z+1/2, -y+1/2, -x'
  137  '-y+3/4, -z+1/4, -x+3/4'
  138  '-x+1/2, -z, y+1/2'
  139  'y+1/4, -z+3/4, x+3/4'
  140  'x+1/2, -z+1/2, -y'
  141  'y+3/4, z+1/4, -x+3/4'
  142  'x, z+1/2, y+1/2'
  143  '-y+1/4, z+3/4, x+3/4'
  144  '-x, z, -y'
  145  'x, y+1/2, z+1/2'
  146  '-y+1/4, x+3/4, z+3/4'
  147  '-x, -y, z'
  148  'y+3/4, -x+3/4, z+1/4'
  149  'x, -y+1/2, -z+1/2'
  150  '-y+1/4, -x+1/4, -z+1/4'
  151  '-x, y, -z'
  152  'y+3/4, x+1/4, -z+3/4'
  153  'z, x+1/2, y+1/2'
  154  'z+1/4, -y+3/4, x+3/4'
  155  'z+1/2, -x+1/2, -y'
  156  'z+3/4, y+1/4, -x+3/4'
  157  '-z, x+1/2, -y+1/2'
  158  '-z+3/4, -y+3/4, -x+1/4'
  159  '-z+1/2, -x+1/2, y'
  160  '-z+1/4, y+1/4, x+1/4'
  161  'y, z+1/2, x+1/2'
  162  'x+1/4, z+3/4, -y+3/4'
  163  '-y+1/2, z, -x+1/2'
  164  '-x+1/4, z+1/4, y+1/4'
  165  '-y, -z+1/2, x+1/2'
  166  '-x+3/4, -z+1/4, -y+3/4'
  167  'y+1/2, -z, -x+1/2'
  168  'x+3/4, -z+3/4, y+1/4'
  169  '-x+1/4, -y+3/4, -z+3/4'
  170  'y, -x+1/2, -z+1/2'
  171  'x+1/4, y+1/4, -z+1/4'
  172  '-y+1/2, x+1/2, -z'
  173  '-x+1/4, y+3/4, z+3/4'
  174  'y, x, z'
  175  'x+1/4, -y+1/4, z+1/4'
  176  '-y+1/2, -x, z+1/2'
  177  '-z+1/4, -x+3/4, -y+3/4'
  178  '-z, y+1/2, -x+1/2'
  179  '-z+3/4, x+3/4, y+1/4'
  180  '-z+1/2, -y, x+1/2'
  181  'z+1/4, -x+3/4, y+3/4'
  182  'z+1/2, y+1/2, x'
  183  'z+3/4, x+3/4, -y+1/4'
  184  'z, -y, -x'
  185  '-y+1/4, -z+3/4, -x+3/4'
  186  '-x, -z+1/2, y+1/2'
  187  'y+3/4, -z+1/4, x+3/4'
  188  'x, -z, -y'
  189  'y+1/4, z+3/4, -x+3/4'
  190  'x+1/2, z, y+1/2'
  191  '-y+3/4, z+1/4, x+3/4'
  192  '-x+1/2, z+1/2, -y'
loop_
 _atom_site_type_symbol
 _atom_site_label
 _atom_site_symmetry_multiplicity
 _atom_site_fract_x
 _atom_site_fract_y
 _atom_site_fract_z
 _atom_site_occupancy
  Cu  Cu0  8  0.00000000  0.00000000  0.50000000  1
  Au  Au1  8  0.00000000  0.00000000  0.00000000  1
# generated using pymatgen
data_ID_39
_symmetry_space_group_name_H-M   Imma
_cell_length_a   5.25990138
_cell_length_b   8.61176366
_cell_length_c   11.50341895
_cell_angle_alpha   90.00000000
_cell_angle_beta   90.00000000
_cell_angle_gamma   90.00000000
_symmetry_Int_Tables_number   74
_chemical_formula_structural   CuAu
_cell_volume   521.07068516
_cell_formula_units_Z   16
loop_
 _symmetry_equiv_pos_site_id
 _symmetry_equiv_pos_as_xyz
  1  'x, y, z'
  2  '-x, -y, -z'
  3  '-x, -y+1/2, z'
  4  'x, y+1/2, -z'
  5  'x, -y, -z'
  6  '-x, y, z'
  7  '-x, y+1/2, -z'
  8  'x, -y+1/2, z'
  9  'x+1/2, y+1/2, z+1/2'
  10  '-x+1/2, -y+1/2, -z+1/2'
  11  '-x+1/2, -y, z+1/2'
  12  'x+1/2, y, -z+1/2'
  13  'x+1/2, -y+1/2, -z+1/2'
  14  '-x+1/2, y+1/2, z+1/2'
  15  '-x+1/2, y, -z+1/2'
  16  'x+1/2, -y, z+1/2'
loop_
 _atom_site_type_symbol
 _atom_site_label
 _atom_site_symmetry_multiplicity
 _atom_site_fract_x
 _atom_site_fract_y
 _atom_site_fract_z
 _atom_site_occupancy
  Cu  Cu0  8  0.00000000  0.01535796  0.74598439  1
  Cu  Cu1  4  0.00000000  0.00000000  0.50000000  1
  Cu  Cu2  4  0.25000000  0.25000000  0.25000000  1
  Au  Au3  8  0.24713586  0.25000000  0.86999899  1
  Au  Au4  4  0.00000000  0.00000000  0.00000000  1
  Au  Au5  4  0.00000000  0.25000000  0.42294709  1
# generated using pymatgen
data_ID_40
_symmetry_space_group_name_H-M   P-3m1
_cell_length_a   5.17616719
_cell_length_b   5.17616719
_cell_length_c   10.38918697
_cell_angle_alpha   90.00000000
_cell_angle_beta   90.00000000
_cell_angle_gamma   120.00000000
_symmetry_Int_Tables_number   164
_chemical_formula_structural   CuAu
_cell_volume   241.06201624
_cell_formula_units_Z   8
loop_
 _symmetry_equiv_pos_site_id
 _symmetry_equiv_pos_as_xyz
  1  'x, y, z'
  2  '-x, -y, -z'
  3  '-y, x-y, z'
  4  'y, -x+y, -z'
  5  '-x+y, -x, z'
  6  'x-y, x, -z'
  7  'y, x, -z'
  8  '-y, -x, z'
  9  'x-y, -y, -z'
  10  '-x+y, y, z'
  11  '-x, -x+y, -z'
  12  'x, x-y, z'
loop_
 _atom_site_type_symbol
 _atom_site_label
 _atom_site_symmetry_multiplicity
 _atom_site_fract_x
 _atom_site_fract_y
 _atom_site_fract_z
 _atom_site_occupancy
  Cu  Cu0  6  0.17111718  0.82888282  0.69872799  1
  Cu  Cu1  2  0.00000000  0.00000000  0.11425757  1
  Au  Au2  3  0.00000000  0.50000000  0.00000000  1
  Au  Au3  2  0.33333333  0.66666667  0.22761818  1
  Au  Au4  2  0.33333333  0.66666667  0.48142354  1
  Au  Au5  1  0.00000000  0.00000000  0.50000000  1
# generated using pymatgen
data_ID_41
_symmetry_space_group_name_H-M   P222_1
_cell_length_a   9.25842339
_cell_length_b   10.43054825
_cell_length_c   2.72781508
_cell_angle_alpha   90.00000000
_cell_angle_beta   90.00000000
_cell_angle_gamma   90.00000000
_symmetry_Int_Tables_number   17
_chemical_formula_structural   CuAu
_cell_volume   263.42628037
_cell_formula_units_Z   8
loop_
 _symmetry_equiv_pos_site_id
 _symmetry_equiv_pos_as_xyz
  1  'x, y, z'
  2  '-x, -y, z+1/2'
  3  'x, -y, -z'
  4  '-x, y, -z+1/2'
loop_
 _atom_site_type_symbol
 _atom_site_label
 _atom_site_symmetry_multiplicity
 _atom_site_fract_x
 _atom_site_fract_y
 _atom_site_fract_z
 _atom_site_occupancy
  Cu  Cu0  4  0.11625266  0.21630748  0.52749309  1
  Cu  Cu1  4  0.25728828  0.39760654  0.23082897  1
  Au  Au2  4  0.36297766  0.16166974  0.03561219  1
  Au  Au3  2  0.12969848  0.00000000  0.00000000  1
  Au  Au4  2  0.50000000  0.38339444  0.75000000  1
# generated using pymatgen
data_ID_42
_symmetry_space_group_name_H-M   P4_2/mcm
_cell_length_a   6.61101028
_cell_length_b   6.61101028
_cell_length_c   5.20588423
_cell_angle_alpha   90.00000000
_cell_angle_beta   90.00000000
_cell_angle_gamma   90.00000000
_symmetry_Int_Tables_number   132
_chemical_formula_structural   CuAu
_cell_volume   227.52554876
_cell_formula_units_Z   4
loop_
 _symmetry_equiv_pos_site_id
 _symmetry_equiv_pos_as_xyz
  1  'x, y, z'
  2  '-x, -y, -z'
  3  '-y, x, z+1/2'
  4  'y, -x, -z+1/2'
  5  '-x, -y, z'
  6  'x, y, -z'
  7  'y, -x, z+1/2'
  8  '-y, x, -z+1/2'
  9  'x, -y, -z+1/2'
  10  '-x, y, z+1/2'
  11  '-y, -x, -z'
  12  'y, x, z'
  13  '-x, y, -z+1/2'
  14  'x, -y, z+1/2'
  15  'y, x, -z'
  16  '-y, -x, z'
loop_
 _atom_site_type_symbol
 _atom_site_label
 _atom_site_symmetry_multiplicity
 _atom_site_fract_x
 _atom_site_fract_y
 _atom_site_fract_z
 _atom_site_occupancy
  Cu  Cu0  4  0.26456752  0.26456752  0.50000000  1
  Au  Au1  2  0.00000000  0.00000000  0.00000000  1
  Au  Au2  2  0.50000000  0.50000000  0.25000000  1
# generated using pymatgen
data_ID_43
_symmetry_space_group_name_H-M   P4_2
_cell_length_a   7.12251932
_cell_length_b   7.12251932
_cell_length_c   5.03461822
_cell_angle_alpha   90.00000000
_cell_angle_beta   90.00000000
_cell_angle_gamma   90.00000000
_symmetry_Int_Tables_number   77
_chemical_formula_structural   CuAu
_cell_volume   255.40759924
_cell_formula_units_Z   8
loop_
 _symmetry_equiv_pos_site_id
 _symmetry_equiv_pos_as_xyz
  1  'x, y, z'
  2  '-y, x, z+1/2'
  3  '-x, -y, z'
  4  'y, -x, z+1/2'
loop_
 _atom_site_type_symbol
 _atom_site_label
 _atom_site_symmetry_multiplicity
 _atom_site_fract_x
 _atom_site_fract_y
 _atom_site_fract_z
 _atom_site_occupancy
  Cu  Cu0  4  0.07934038  0.16008155  0.83485804  1
  Cu  Cu1  4  0.15422211  0.26144964  0.36696671  1
  Au  Au2  4  0.16311535  0.59479710  0.54399780  1
  Au  Au3  2  0.00000000  0.50000000  0.03305088  1
  Au  Au4  2  0.50000000  0.50000000  0.29258099  1
# generated using pymatgen
data_ID_44
_symmetry_space_group_name_H-M   Fmm2
_cell_length_a   9.06584221
_cell_length_b   9.16876550
_cell_length_c   13.19826854
_cell_angle_alpha   90.00000000
_cell_angle_beta   90.00000000
_cell_angle_gamma   90.00000000
_symmetry_Int_Tables_number   42
_chemical_formula_structural   CuAu
_cell_volume   1097.07414912
_cell_formula_units_Z   32
loop_
 _symmetry_equiv_pos_site_id
 _symmetry_equiv_pos_as_xyz
  1  'x, y, z'
  2  '-x, -y, z'
  3  '-x, y, z'
  4  'x, -y, z'
  5  'x+1/2, y, z+1/2'
  6  '-x+1/2, -y, z+1/2'
  7  '-x+1/2, y, z+1/2'
  8  'x+1/2, -y, z+1/2'
  9  'x+1/2, y+1/2, z'
  10  '-x+1/2, -y+1/2, z'
  11  '-x+1/2, y+1/2, z'
  12  'x+1/2, -y+1/2, z'
  13  'x, y+1/2, z+1/2'
  14  '-x, -y+1/2, z+1/2'
  15  '-x, y+1/2, z+1/2'
  16  'x, -y+1/2, z+1/2'
loop_
 _atom_site_type_symbol
 _atom_site_label
 _atom_site_symmetry_multiplicity
 _atom_site_fract_x
 _atom_site_fract_y
 _atom_site_fract_z
 _atom_site_occupancy
  Cu  Cu0  16  0.13910050  0.13474819  0.38900968  1
  Cu  Cu1  8  0.13679836  0.00000000  0.96211775  1
  Cu  Cu2  8  0.25000000  0.25000000  0.03267357  1
  Au  Au3  16  0.14676713  0.14552388  0.19713673  1
  Au  Au4  8  0.00000000  0.14222729  0.80903968  1
  Au  Au5  8  0.14186280  0.00000000  0.58469508  1
# generated using pymatgen
data_ID_45
_symmetry_space_group_name_H-M   P4/mmm
_cell_length_a   9.04083336
_cell_length_b   9.04083336
_cell_length_c   2.63535423
_cell_angle_alpha   90.00000000
_cell_angle_beta   90.00000000
_cell_angle_gamma   90.00000000
_symmetry_Int_Tables_number   123
_chemical_formula_structural   CuAu
_cell_volume   215.40507356
_cell_formula_units_Z   4
loop_
 _symmetry_equiv_pos_site_id
 _symmetry_equiv_pos_as_xyz
  1  'x, y, z'
  2  '-x, -y, -z'
  3  '-y, x, z'
  4  'y, -x, -z'
  5  '-x, -y, z'
  6  'x, y, -z'
  7  'y, -x, z'
  8  '-y, x, -z'
  9  'x, -y, -z'
  10  '-x, y, z'
  11  '-y, -x, -z'
  12  'y, x, z'
  13  '-x, y, -z'
  14  'x, -y, z'
  15  'y, x, -z'
  16  '-y, -x, z'
loop_
 _atom_site_type_symbol
 _atom_site_label
 _atom_site_symmetry_multiplicity
 _atom_site_fract_x
 _atom_site_fract_y
 _atom_site_fract_z
 _atom_site_occupancy
  Cu  Cu0  4  0.13730997  0.13730997  0.00000000  1
  Au  Au1  4  0.00000000  0.35057918  0.50000000  1
# generated using pymatgen
data_ID_46
_symmetry_space_group_name_H-M   P6/mmm
_cell_length_a   9.03346982
_cell_length_b   9.03346982
_cell_length_c   5.21860128
_cell_angle_alpha   90.00000000
_cell_angle_beta   90.00000000
_cell_angle_gamma   120.00000000
_symmetry_Int_Tables_number   191
_chemical_formula_structural   CuAu
_cell_volume   368.80257441
_cell_formula_units_Z   8
loop_
 _symmetry_equiv_pos_site_id
 _symmetry_equiv_pos_as_xyz
  1  'x, y, z'
  2  '-x, -y, -z'
  3  'x-y, x, z'
  4  '-x+y, -x, -z'
  5  '-y, x-y, z'
  6  'y, -x+y, -z'
  7  '-x, -y, z'
  8  'x, y, -z'
  9  '-x+y, -x, z'
  10  'x-y, x, -z'
  11  'y, -x+y, z'
  12  '-y, x-y, -z'
  13  '-y, -x, -z'
  14  'y, x, z'
  15  '-x, -x+y, -z'
  16  'x, x-y, z'
  17  '-x+y, y, -z'
  18  'x-y, -y, z'
  19  'y, x, -z'
  20  '-y, -x, z'
  21  'x, x-y, -z'
  22  '-x, -x+y, z'
  23  'x-y, -y, -z'
  24  '-x+y, y, z'
loop_
 _atom_site_type_symbol
 _atom_site_label
 _atom_site_symmetry_multiplicity
 _atom_site_fract_x
 _atom_site_fract_y
 _atom_site_fract_z
 _atom_site_occupancy
  Cu  Cu0  6  0.00000000  0.26787547  0.00000000  1
  Cu  Cu1  1  0.00000000  0.00000000  0.00000000  1
  Cu  Cu2  1  0.00000000  0.00000000  0.50000000  1
  Au  Au3  6  0.00000000  0.50000000  0.25981556  1
  Au  Au4  2  0.33333333  0.66666667  0.50000000  1
# generated using pymatgen
data_ID_47
_symmetry_space_group_name_H-M   P6_3mc
_cell_length_a   6.10241366
_cell_length_b   6.10241366
_cell_length_c   8.68407086
_cell_angle_alpha   90.00000000
_cell_angle_beta   90.00000000
_cell_angle_gamma   120.00000000
_symmetry_Int_Tables_number   186
_chemical_formula_structural   CuAu
_cell_volume   280.06399314
_cell_formula_units_Z   8
loop_
 _symmetry_equiv_pos_site_id
 _symmetry_equiv_pos_as_xyz
  1  'x, y, z'
  2  'x-y, x, z+1/2'
  3  '-y, x-y, z'
  4  '-x, -y, z+1/2'
  5  '-x+y, -x, z'
  6  'y, -x+y, z+1/2'
  7  'y, x, z+1/2'
  8  'x, x-y, z'
  9  'x-y, -y, z+1/2'
  10  '-y, -x, z'
  11  '-x, -x+y, z+1/2'
  12  '-x+y, y, z'
loop_
 _atom_site_type_symbol
 _atom_site_label
 _atom_site_symmetry_multiplicity
 _atom_site_fract_x
 _atom_site_fract_y
 _atom_site_fract_z
 _atom_site_occupancy
  Cu  Cu0  6  0.13432831  0.26865662  0.13230479  1
  Cu  Cu1  2  0.33333333  0.66666667  0.01522372  1
  Au  Au2  6  0.03864617  0.51932308  0.33766386  1
  Au  Au3  2  0.00000000  0.00000000  0.38144993  1
# generated using pymatgen
data_ID_48
_symmetry_space_group_name_H-M   P4_122
_cell_length_a   4.78970493
_cell_length_b   4.78970493
_cell_length_c   10.34143911
_cell_angle_alpha   90.00000000
_cell_angle_beta   90.00000000
_cell_angle_gamma   90.00000000
_symmetry_Int_Tables_number   91
_chemical_formula_structural   CuAu
_cell_volume   237.24578133
_cell_formula_units_Z   8
loop_
 _symmetry_equiv_pos_site_id
 _symmetry_equiv_pos_as_xyz
  1  'x, y, z'
  2  '-y, x, z+1/4'
  3  '-x, -y, z+1/2'
  4  'y, -x, z+3/4'
  5  'x, -y, -z+1/2'
  6  '-y, -x, -z+1/4'
  7  '-x, y, -z'
  8  'y, x, -z+3/4'
loop_
 _atom_site_type_symbol
 _atom_site_label
 _atom_site_symmetry_multiplicity
 _atom_site_fract_x
 _atom_site_fract_y
 _atom_site_fract_z
 _atom_site_occupancy
  Cu  Cu0  8  0.02840177  0.25152866  0.26932179  1
  Au  Au1  4  0.00000000  0.46338043  0.00000000  1
  Au  Au2  4  0.49666068  0.49666068  0.87500000  1
# generated using pymatgen
data_ID_49
_symmetry_space_group_name_H-M   P4_332
_cell_length_a   7.00108034
_cell_length_b   7.00108034
_cell_length_c   7.00108034
_cell_angle_alpha   90.00000000
_cell_angle_beta   90.00000000
_cell_angle_gamma   90.00000000
_symmetry_Int_Tables_number   212
_chemical_formula_structural   CuAu
_cell_volume   343.15883455
_cell_formula_units_Z   8
loop_
 _symmetry_equiv_pos_site_id
 _symmetry_equiv_pos_as_xyz
  1  'x, y, z'
  2  '-y+3/4, x+1/4, z+3/4'
  3  '-x+1/2, -y, z+1/2'
  4  'y+3/4, -x+3/4, z+1/4'
  5  'x+1/2, -y+1/2, -z'
  6  '-y+1/4, -x+1/4, -z+1/4'
  7  '-x, y+1/2, -z+1/2'
  8  'y+1/4, x+3/4, -z+3/4'
  9  'z, x, y'
  10  'z+3/4, -y+3/4, x+1/4'
  11  'z+1/2, -x+1/2, -y'
  12  'z+1/4, y+3/4, -x+3/4'
  13  '-z, x+1/2, -y+1/2'
  14  '-z+1/4, -y+1/4, -x+1/4'
  15  '-z+1/2, -x, y+1/2'
  16  '-z+3/4, y+1/4, x+3/4'
  17  'y, z, x'
  18  'x+1/4, z+3/4, -y+3/4'
  19  '-y, z+1/2, -x+1/2'
  20  '-x+3/4, z+1/4, y+3/4'
  21  '-y+1/2, -z, x+1/2'
  22  '-x+1/4, -z+1/4, -y+1/4'
  23  'y+1/2, -z+1/2, -x'
  24  'x+3/4, -z+3/4, y+1/4'
loop_
 _atom_site_type_symbol
 _atom_site_label
 _atom_site_symmetry_multiplicity
 _atom_site_fract_x
 _atom_site_fract_y
 _atom_site_fract_z
 _atom_site_occupancy
  Cu  Cu0  4  0.12500000  0.12500000  0.12500000  1
  Cu  Cu1  4  0.12500000  0.87500000  0.37500000  1
  Au  Au2  8  0.08164866  0.58164866  0.91835134  1
# generated using pymatgen
data_ID_50
_symmetry_space_group_name_H-M   P6mm
_cell_length_a   6.38074086
_cell_length_b   6.38074086
_cell_length_c   8.67901278
_cell_angle_alpha   90.00000000
_cell_angle_beta   90.00000000
_cell_angle_gamma   120.00000000
_symmetry_Int_Tables_number   183
_chemical_formula_structural   CuAu
_cell_volume   306.01532338
_cell_formula_units_Z   8
loop_
 _symmetry_equiv_pos_site_id
 _symmetry_equiv_pos_as_xyz
  1  'x, y, z'
  2  'x-y, x, z'
  3  '-y, x-y, z'
  4  '-x, -y, z'
  5  '-x+y, -x, z'
  6  'y, -x+y, z'
  7  'y, x, z'
  8  'x, x-y, z'
  9  'x-y, -y, z'
  10  '-y, -x, z'
  11  '-x, -x+y, z'
  12  '-x+y, y, z'
loop_
 _atom_site_type_symbol
 _atom_site_label
 _atom_site_symmetry_multiplicity
 _atom_site_fract_x
 _atom_site_fract_y
 _atom_site_fract_z
 _atom_site_occupancy
  Cu  Cu0  6  0.20813380  0.41626760  0.08912278  1
  Cu  Cu1  1  0.00000000  0.00000000  0.23225628  1
  Cu  Cu2  1  0.00000000  0.00000000  0.94941584  1
  Au  Au3  3  0.00000000  0.50000000  0.85197918  1
  Au  Au4  2  0.33333333  0.66666667  0.33544660  1
  Au  Au5  2  0.33333333  0.66666667  0.62954869  1
  Au  Au6  1  0.00000000  0.00000000  0.68352923  1
# generated using pymatgen
data_ID_51
_symmetry_space_group_name_H-M   I4_1/a
_cell_length_a   4.94775136
_cell_length_b   4.94775136
_cell_length_c   32.53294441
_cell_angle_alpha   90.00000000
_cell_angle_beta   90.00000000
_cell_angle_gamma   90.00000000
_symmetry_Int_Tables_number   88
_chemical_formula_structural   CuAu
_cell_volume   796.41440313
_cell_formula_units_Z   16
loop_
 _symmetry_equiv_pos_site_id
 _symmetry_equiv_pos_as_xyz
  1  'x, y, z'
  2  '-y, x+1/2, z+1/4'
  3  '-x+1/2, -y+1/2, z+1/2'
  4  'y+1/2, -x, z+3/4'
  5  '-x, -y+1/2, -z+1/4'
  6  'y, -x, -z'
  7  'x+1/2, y, -z+3/4'
  8  '-y+1/2, x+1/2, -z+1/2'
  9  'x+1/2, y+1/2, z+1/2'
  10  '-y+1/2, x, z+3/4'
  11  '-x, -y, z'
  12  'y, -x+1/2, z+1/4'
  13  '-x+1/2, -y, -z+3/4'
  14  'y+1/2, -x+1/2, -z+1/2'
  15  'x, y+1/2, -z+1/4'
  16  '-y, x, -z'
loop_
 _atom_site_type_symbol
 _atom_site_label
 _atom_site_symmetry_multiplicity
 _atom_site_fract_x
 _atom_site_fract_y
 _atom_site_fract_z
 _atom_site_occupancy
  Cu  Cu0  16  0.17570061  0.31866247  0.94730957  1
  Au  Au1  8  0.00000000  0.25000000  0.62500000  1
  Au  Au2  4  0.00000000  0.00000000  0.00000000  1
  Au  Au3  4  0.00000000  0.00000000  0.50000000  1
# generated using pymatgen
data_ID_52
_symmetry_space_group_name_H-M   P2/m
_cell_length_a   5.25666489
_cell_length_b   5.32260865
_cell_length_c   8.34663411
_cell_angle_alpha   90.00000000
_cell_angle_beta   98.07836701
_cell_angle_gamma   90.00000000
_symmetry_Int_Tables_number   10
_chemical_formula_structural   CuAu
_cell_volume   231.21450836
_cell_formula_units_Z   8
loop_
 _symmetry_equiv_pos_site_id
 _symmetry_equiv_pos_as_xyz
  1  'x, y, z'
  2  '-x, -y, -z'
  3  '-x, y, -z'
  4  'x, -y, z'
loop_
 _atom_site_type_symbol
 _atom_site_label
 _atom_site_symmetry_multiplicity
 _atom_site_fract_x
 _atom_site_fract_y
 _atom_site_fract_z
 _atom_site_occupancy
  Cu  Cu0  4  0.30249946  0.23821544  0.22137303  1
  Cu  Cu1  1  0.00000000  0.00000000  0.00000000  1
  Cu  Cu2  1  0.00000000  0.00000000  0.50000000  1
  Cu  Cu3  1  0.00000000  0.50000000  0.00000000  1
  Cu  Cu4  1  0.50000000  0.00000000  0.00000000  1
  Au  Au5  4  0.18956310  0.24806205  0.75874008  1
  Au  Au6  2  0.24304081  0.50000000  0.47273175  1
  Au  Au7  1  0.50000000  0.00000000  0.50000000  1
  Au  Au8  1  0.50000000  0.50000000  0.00000000  1
# generated using pymatgen
data_ID_53
_symmetry_space_group_name_H-M   Pmn2_1
_cell_length_a   5.35266879
_cell_length_b   6.79972155
_cell_length_c   8.17387287
_cell_angle_alpha   90.00000000
_cell_angle_beta   90.00000000
_cell_angle_gamma   90.00000000
_symmetry_Int_Tables_number   31
_chemical_formula_structural   CuAu
_cell_volume   297.50164972
_cell_formula_units_Z   8
loop_
 _symmetry_equiv_pos_site_id
 _symmetry_equiv_pos_as_xyz
  1  'x, y, z'
  2  '-x+1/2, -y, z+1/2'
  3  '-x, y, z'
  4  'x+1/2, -y, z+1/2'
loop_
 _atom_site_type_symbol
 _atom_site_label
 _atom_site_symmetry_multiplicity
 _atom_site_fract_x
 _atom_site_fract_y
 _atom_site_fract_z
 _atom_site_occupancy
  Cu  Cu0  4  0.24906867  0.21003603  0.44151557  1
  Cu  Cu1  2  0.00000000  0.10107838  0.02522454  1
  Cu  Cu2  2  0.00000000  0.59384864  0.16092276  1
  Au  Au3  4  0.24775347  0.08738297  0.74447893  1
  Au  Au4  4  0.24783871  0.58797164  0.43723404  1
# generated using pymatgen
data_ID_54
_symmetry_space_group_name_H-M   P-43n
_cell_length_a   6.81928014
_cell_length_b   6.81928014
_cell_length_c   6.81928014
_cell_angle_alpha   90.00000000
_cell_angle_beta   90.00000000
_cell_angle_gamma   90.00000000
_symmetry_Int_Tables_number   218
_chemical_formula_structural   CuAu
_cell_volume   317.11413201
_cell_formula_units_Z   8
loop_
 _symmetry_equiv_pos_site_id
 _symmetry_equiv_pos_as_xyz
  1  'x, y, z'
  2  'y+1/2, -x+1/2, -z+1/2'
  3  '-x, -y, z'
  4  '-y+1/2, x+1/2, -z+1/2'
  5  'x, -y, -z'
  6  'y+1/2, x+1/2, z+1/2'
  7  '-x, y, -z'
  8  '-y+1/2, -x+1/2, z+1/2'
  9  'z, x, y'
  10  '-z+1/2, y+1/2, -x+1/2'
  11  'z, -x, -y'
  12  '-z+1/2, -y+1/2, x+1/2'
  13  '-z, x, -y'
  14  'z+1/2, y+1/2, x+1/2'
  15  '-z, -x, y'
  16  'z+1/2, -y+1/2, -x+1/2'
  17  'y, z, x'
  18  '-x+1/2, -z+1/2, y+1/2'
  19  '-y, z, -x'
  20  'x+1/2, -z+1/2, -y+1/2'
  21  '-y, -z, x'
  22  'x+1/2, z+1/2, y+1/2'
  23  'y, -z, -x'
  24  '-x+1/2, z+1/2, -y+1/2'
loop_
 _atom_site_type_symbol
 _atom_site_label
 _atom_site_symmetry_multiplicity
 _atom_site_fract_x
 _atom_site_fract_y
 _atom_site_fract_z
 _atom_site_occupancy
  Cu  Cu0  6  0.00000000  0.25000000  0.50000000  1
  Cu  Cu1  2  0.00000000  0.00000000  0.00000000  1
  Au  Au2  8  0.21621808  0.21621808  0.21621808  1
# generated using pymatgen
data_ID_55
_symmetry_space_group_name_H-M   P-6
_cell_length_a   6.97084765
_cell_length_b   6.97084765
_cell_length_c   8.72172225
_cell_angle_alpha   90.00000000
_cell_angle_beta   90.00000000
_cell_angle_gamma   120.00000000
_symmetry_Int_Tables_number   174
_chemical_formula_structural   CuAu
_cell_volume   367.03211544
_cell_formula_units_Z   8
loop_
 _symmetry_equiv_pos_site_id
 _symmetry_equiv_pos_as_xyz
  1  'x, y, z'
  2  '-x+y, -x, -z'
  3  '-y, x-y, z'
  4  'x, y, -z'
  5  '-x+y, -x, z'
  6  '-y, x-y, -z'
loop_
 _atom_site_type_symbol
 _atom_site_label
 _atom_site_symmetry_multiplicity
 _atom_site_fract_x
 _atom_site_fract_y
 _atom_site_fract_z
 _atom_site_occupancy
  Cu  Cu0  3  0.23492629  0.18809040  0.00000000  1
  Cu  Cu1  3  0.47142743  0.38114010  0.50000000  1
  Cu  Cu2  2  0.66666667  0.33333333  0.71833650  1
  Au  Au3  3  0.03921561  0.23821334  0.50000000  1
  Au  Au4  3  0.09546598  0.47136432  0.00000000  1
  Au  Au5  1  0.33333333  0.66666667  0.50000000  1
  Au  Au6  1  0.66666667  0.33333333  0.00000000  1
# generated using pymatgen
data_ID_56
_symmetry_space_group_name_H-M   Pmmm
_cell_length_a   2.62661807
_cell_length_b   2.70110912
_cell_length_c   4.50914092
_cell_angle_alpha   90.00000000
_cell_angle_beta   90.00000000
_cell_angle_gamma   90.00000000
_symmetry_Int_Tables_number   47
_chemical_formula_structural   CuAu
_cell_volume   31.99137195
_cell_formula_units_Z   1
loop_
 _symmetry_equiv_pos_site_id
 _symmetry_equiv_pos_as_xyz
  1  'x, y, z'
  2  '-x, -y, -z'
  3  '-x, -y, z'
  4  'x, y, -z'
  5  'x, -y, -z'
  6  '-x, y, z'
  7  '-x, y, -z'
  8  'x, -y, z'
loop_
 _atom_site_type_symbol
 _atom_site_label
 _atom_site_symmetry_multiplicity
 _atom_site_fract_x
 _atom_site_fract_y
 _atom_site_fract_z
 _atom_site_occupancy
  Cu  Cu0  1  0.00000000  0.00000000  0.50000000  1
  Au  Au1  1  0.00000000  0.50000000  0.00000000  1
# generated using pymatgen
data_ID_57
_symmetry_space_group_name_H-M   P31m
_cell_length_a   7.25448321
_cell_length_b   7.25448321
_cell_length_c   5.35053093
_cell_angle_alpha   90.00000000
_cell_angle_beta   90.00000000
_cell_angle_gamma   120.00000000
_symmetry_Int_Tables_number   157
_chemical_formula_structural   CuAu
_cell_volume   243.85994407
_cell_formula_units_Z   8
loop_
 _symmetry_equiv_pos_site_id
 _symmetry_equiv_pos_as_xyz
  1  'x, y, z'
  2  '-y, x-y, z'
  3  '-x+y, -x, z'
  4  'y, x, z'
  5  'x-y, -y, z'
  6  '-x, -x+y, z'
loop_
 _atom_site_type_symbol
 _atom_site_label
 _atom_site_symmetry_multiplicity
 _atom_site_fract_x
 _atom_site_fract_y
 _atom_site_fract_z
 _atom_site_occupancy
  Cu  Cu0  3  0.00000000  0.31446761  0.33854725  1
  Cu  Cu1  3  0.00000000  0.64853157  0.06772568  1
  Cu  Cu2  2  0.33333333  0.66666667  0.25247805  1
  Au  Au3  3  0.00000000  0.33312822  0.84904991  1
  Au  Au4  3  0.00000000  0.63303064  0.55474359  1
  Au  Au5  1  0.00000000  0.00000000  0.10709021  1
  Au  Au6  1  0.00000000  0.00000000  0.60591392  1
# generated using pymatgen
data_ID_58
_symmetry_space_group_name_H-M   I4/mcm
_cell_length_a   9.61646463
_cell_length_b   9.61646463
_cell_length_c   5.35868823
_cell_angle_alpha   90.00000000
_cell_angle_beta   90.00000000
_cell_angle_gamma   90.00000000
_symmetry_Int_Tables_number   140
_chemical_formula_structural   CuAu
_cell_volume   495.55215393
_cell_formula_units_Z   16
loop_
 _symmetry_equiv_pos_site_id
 _symmetry_equiv_pos_as_xyz
  1  'x, y, z'
  2  '-x, -y, -z'
  3  '-y, x, z'
  4  'y, -x, -z'
  5  '-x, -y, z'
  6  'x, y, -z'
  7  'y, -x, z'
  8  '-y, x, -z'
  9  'x, -y, -z+1/2'
  10  '-x, y, z+1/2'
  11  '-y, -x, -z+1/2'
  12  'y, x, z+1/2'
  13  '-x, y, -z+1/2'
  14  'x, -y, z+1/2'
  15  'y, x, -z+1/2'
  16  '-y, -x, z+1/2'
  17  'x+1/2, y+1/2, z+1/2'
  18  '-x+1/2, -y+1/2, -z+1/2'
  19  '-y+1/2, x+1/2, z+1/2'
  20  'y+1/2, -x+1/2, -z+1/2'
  21  '-x+1/2, -y+1/2, z+1/2'
  22  'x+1/2, y+1/2, -z+1/2'
  23  'y+1/2, -x+1/2, z+1/2'
  24  '-y+1/2, x+1/2, -z+1/2'
  25  'x+1/2, -y+1/2, -z'
  26  '-x+1/2, y+1/2, z'
  27  '-y+1/2, -x+1/2, -z'
  28  'y+1/2, x+1/2, z'
  29  '-x+1/2, y+1/2, -z'
  30  'x+1/2, -y+1/2, z'
  31  'y+1/2, x+1/2, -z'
  32  '-y+1/2, -x+1/2, z'
loop_
 _atom_site_type_symbol
 _atom_site_label
 _atom_site_symmetry_multiplicity
 _atom_site_fract_x
 _atom_site_fract_y
 _atom_site_fract_z
 _atom_site_occupancy
  Cu  Cu0  8  0.08680165  0.41319835  0.00000000  1
  Cu  Cu1  8  0.22875743  0.27124257  0.50000000  1
  Au  Au2  16  0.00000000  0.19979422  0.25000000  1
# generated using pymatgen
data_ID_59
_symmetry_space_group_name_H-M   Cccm
_cell_length_a   8.29077156
_cell_length_b   11.31085278
_cell_length_c   5.14144933
_cell_angle_alpha   90.00000000
_cell_angle_beta   90.00000000
_cell_angle_gamma   90.00000000
_symmetry_Int_Tables_number   66
_chemical_formula_structural   CuAu
_cell_volume   482.14299251
_cell_formula_units_Z   16
loop_
 _symmetry_equiv_pos_site_id
 _symmetry_equiv_pos_as_xyz
  1  'x, y, z'
  2  '-x, -y, -z'
  3  '-x, -y, z'
  4  'x, y, -z'
  5  'x, -y, -z+1/2'
  6  '-x, y, z+1/2'
  7  '-x, y, -z+1/2'
  8  'x, -y, z+1/2'
  9  'x+1/2, y+1/2, z'
  10  '-x+1/2, -y+1/2, -z'
  11  '-x+1/2, -y+1/2, z'
  12  'x+1/2, y+1/2, -z'
  13  'x+1/2, -y+1/2, -z+1/2'
  14  '-x+1/2, y+1/2, z+1/2'
  15  '-x+1/2, y+1/2, -z+1/2'
  16  'x+1/2, -y+1/2, z+1/2'
loop_
 _atom_site_type_symbol
 _atom_site_label
 _atom_site_symmetry_multiplicity
 _atom_site_fract_x
 _atom_site_fract_y
 _atom_site_fract_z
 _atom_site_occupancy
  Cu  Cu0  8  0.03963573  0.35802422  0.00000000  1
  Cu  Cu1  8  0.25000000  0.25000000  0.26258149  1
  Au  Au2  8  0.03718199  0.12748459  0.00000000  1
  Au  Au3  8  0.22958098  0.45801746  0.50000000  1
# generated using pymatgen
data_ID_60
_symmetry_space_group_name_H-M   Fm-3m
_cell_length_a   11.52731018
_cell_length_b   11.52731018
_cell_length_c   11.52731018
_cell_angle_alpha   90.00000000
_cell_angle_beta   90.00000000
_cell_angle_gamma   90.00000000
_symmetry_Int_Tables_number   225
_chemical_formula_structural   CuAu
_cell_volume   1531.73606501
_cell_formula_units_Z   32
loop_
 _symmetry_equiv_pos_site_id
 _symmetry_equiv_pos_as_xyz
  1  'x, y, z'
  2  '-x, -y, -z'
  3  '-y, x, z'
  4  'y, -x, -z'
  5  '-x, -y, z'
  6  'x, y, -z'
  7  'y, -x, z'
  8  '-y, x, -z'
  9  'x, -y, -z'
  10  '-x, y, z'
  11  '-y, -x, -z'
  12  'y, x, z'
  13  '-x, y, -z'
  14  'x, -y, z'
  15  'y, x, -z'
  16  '-y, -x, z'
  17  'z, x, y'
  18  '-z, -x, -y'
  19  'z, -y, x'
  20  '-z, y, -x'
  21  'z, -x, -y'
  22  '-z, x, y'
  23  'z, y, -x'
  24  '-z, -y, x'
  25  '-z, x, -y'
  26  'z, -x, y'
  27  '-z, -y, -x'
  28  'z, y, x'
  29  '-z, -x, y'
  30  'z, x, -y'
  31  '-z, y, x'
  32  'z, -y, -x'
  33  'y, z, x'
  34  '-y, -z, -x'
  35  'x, z, -y'
  36  '-x, -z, y'
  37  '-y, z, -x'
  38  'y, -z, x'
  39  '-x, z, y'
  40  'x, -z, -y'
  41  '-y, -z, x'
  42  'y, z, -x'
  43  '-x, -z, -y'
  44  'x, z, y'
  45  'y, -z, -x'
  46  '-y, z, x'
  47  'x, -z, y'
  48  '-x, z, -y'
  49  'x+1/2, y+1/2, z'
  50  '-x+1/2, -y+1/2, -z'
  51  '-y+1/2, x+1/2, z'
  52  'y+1/2, -x+1/2, -z'
  53  '-x+1/2, -y+1/2, z'
  54  'x+1/2, y+1/2, -z'
  55  'y+1/2, -x+1/2, z'
  56  '-y+1/2, x+1/2, -z'
  57  'x+1/2, -y+1/2, -z'
  58  '-x+1/2, y+1/2, z'
  59  '-y+1/2, -x+1/2, -z'
  60  'y+1/2, x+1/2, z'
  61  '-x+1/2, y+1/2, -z'
  62  'x+1/2, -y+1/2, z'
  63  'y+1/2, x+1/2, -z'
  64  '-y+1/2, -x+1/2, z'
  65  'z+1/2, x+1/2, y'
  66  '-z+1/2, -x+1/2, -y'
  67  'z+1/2, -y+1/2, x'
  68  '-z+1/2, y+1/2, -x'
  69  'z+1/2, -x+1/2, -y'
  70  '-z+1/2, x+1/2, y'
  71  'z+1/2, y+1/2, -x'
  72  '-z+1/2, -y+1/2, x'
  73  '-z+1/2, x+1/2, -y'
  74  'z+1/2, -x+1/2, y'
  75  '-z+1/2, -y+1/2, -x'
  76  'z+1/2, y+1/2, x'
  77  '-z+1/2, -x+1/2, y'
  78  'z+1/2, x+1/2, -y'
  79  '-z+1/2, y+1/2, x'
  80  'z+1/2, -y+1/2, -x'
  81  'y+1/2, z+1/2, x'
  82  '-y+1/2, -z+1/2, -x'
  83  'x+1/2, z+1/2, -y'
  84  '-x+1/2, -z+1/2, y'
  85  '-y+1/2, z+1/2, -x'
  86  'y+1/2, -z+1/2, x'
  87  '-x+1/2, z+1/2, y'
  88  'x+1/2, -z+1/2, -y'
  89  '-y+1/2, -z+1/2, x'
  90  'y+1/2, z+1/2, -x'
  91  '-x+1/2, -z+1/2, -y'
  92  'x+1/2, z+1/2, y'
  93  'y+1/2, -z+1/2, -x'
  94  '-y+1/2, z+1/2, x'
  95  'x+1/2, -z+1/2, y'
  96  '-x+1/2, z+1/2, -y'
  97  'x+1/2, y, z+1/2'
  98  '-x+1/2, -y, -z+1/2'
  99  '-y+1/2, x, z+1/2'
  100  'y+1/2, -x, -z+1/2'
  101  '-x+1/2, -y, z+1/2'
  102  'x+1/2, y, -z+1/2'
  103  'y+1/2, -x, z+1/2'
  104  '-y+1/2, x, -z+1/2'
  105  'x+1/2, -y, -z+1/2'
  106  '-x+1/2, y, z+1/2'
  107  '-y+1/2, -x, -z+1/2'
  108  'y+1/2, x, z+1/2'
  109  '-x+1/2, y, -z+1/2'
  110  'x+1/2, -y, z+1/2'
  111  'y+1/2, x, -z+1/2'
  112  '-y+1/2, -x, z+1/2'
  113  'z+1/2, x, y+1/2'
  114  '-z+1/2, -x, -y+1/2'
  115  'z+1/2, -y, x+1/2'
  116  '-z+1/2, y, -x+1/2'
  117  'z+1/2, -x, -y+1/2'
  118  '-z+1/2, x, y+1/2'
  119  'z+1/2, y, -x+1/2'
  120  '-z+1/2, -y, x+1/2'
  121  '-z+1/2, x, -y+1/2'
  122  'z+1/2, -x, y+1/2'
  123  '-z+1/2, -y, -x+1/2'
  124  'z+1/2, y, x+1/2'
  125  '-z+1/2, -x, y+1/2'
  126  'z+1/2, x, -y+1/2'
  127  '-z+1/2, y, x+1/2'
  128  'z+1/2, -y, -x+1/2'
  129  'y+1/2, z, x+1/2'
  130  '-y+1/2, -z, -x+1/2'
  131  'x+1/2, z, -y+1/2'
  132  '-x+1/2, -z, y+1/2'
  133  '-y+1/2, z, -x+1/2'
  134  'y+1/2, -z, x+1/2'
  135  '-x+1/2, z, y+1/2'
  136  'x+1/2, -z, -y+1/2'
  137  '-y+1/2, -z, x+1/2'
  138  'y+1/2, z, -x+1/2'
  139  '-x+1/2, -z, -y+1/2'
  140  'x+1/2, z, y+1/2'
  141  'y+1/2, -z, -x+1/2'
  142  '-y+1/2, z, x+1/2'
  143  'x+1/2, -z, y+1/2'
  144  '-x+1/2, z, -y+1/2'
  145  'x, y+1/2, z+1/2'
  146  '-x, -y+1/2, -z+1/2'
  147  '-y, x+1/2, z+1/2'
  148  'y, -x+1/2, -z+1/2'
  149  '-x, -y+1/2, z+1/2'
  150  'x, y+1/2, -z+1/2'
  151  'y, -x+1/2, z+1/2'
  152  '-y, x+1/2, -z+1/2'
  153  'x, -y+1/2, -z+1/2'
  154  '-x, y+1/2, z+1/2'
  155  '-y, -x+1/2, -z+1/2'
  156  'y, x+1/2, z+1/2'
  157  '-x, y+1/2, -z+1/2'
  158  'x, -y+1/2, z+1/2'
  159  'y, x+1/2, -z+1/2'
  160  '-y, -x+1/2, z+1/2'
  161  'z, x+1/2, y+1/2'
  162  '-z, -x+1/2, -y+1/2'
  163  'z, -y+1/2, x+1/2'
  164  '-z, y+1/2, -x+1/2'
  165  'z, -x+1/2, -y+1/2'
  166  '-z, x+1/2, y+1/2'
  167  'z, y+1/2, -x+1/2'
  168  '-z, -y+1/2, x+1/2'
  169  '-z, x+1/2, -y+1/2'
  170  'z, -x+1/2, y+1/2'
  171  '-z, -y+1/2, -x+1/2'
  172  'z, y+1/2, x+1/2'
  173  '-z, -x+1/2, y+1/2'
  174  'z, x+1/2, -y+1/2'
  175  '-z, y+1/2, x+1/2'
  176  'z, -y+1/2, -x+1/2'
  177  'y, z+1/2, x+1/2'
  178  '-y, -z+1/2, -x+1/2'
  179  'x, z+1/2, -y+1/2'
  180  '-x, -z+1/2, y+1/2'
  181  '-y, z+1/2, -x+1/2'
  182  'y, -z+1/2, x+1/2'
  183  '-x, z+1/2, y+1/2'
  184  'x, -z+1/2, -y+1/2'
  185  '-y, -z+1/2, x+1/2'
  186  'y, z+1/2, -x+1/2'
  187  '-x, -z+1/2, -y+1/2'
  188  'x, z+1/2, y+1/2'
  189  'y, -z+1/2, -x+1/2'
  190  '-y, z+1/2, x+1/2'
  191  'x, -z+1/2, y+1/2'
  192  '-x, z+1/2, -y+1/2'
loop_
 _atom_site_type_symbol
 _atom_site_label
 _atom_site_symmetry_multiplicity
 _atom_site_fract_x
 _atom_site_fract_y
 _atom_site_fract_z
 _atom_site_occupancy
  Cu  Cu0  24  0.00000000  0.25000000  0.25000000  1
  Cu  Cu1  8  0.25000000  0.25000000  0.25000000  1
  Au  Au2  32  0.11673516  0.11673516  0.38326484  1
# generated using pymatgen
data_ID_61
_symmetry_space_group_name_H-M   P-4c2
_cell_length_a   6.62312974
_cell_length_b   6.62312974
_cell_length_c   9.86244474
_cell_angle_alpha   90.00000000
_cell_angle_beta   90.00000000
_cell_angle_gamma   90.00000000
_symmetry_Int_Tables_number   116
_chemical_formula_structural   CuAu
_cell_volume   432.62449760
_cell_formula_units_Z   8
loop_
 _symmetry_equiv_pos_site_id
 _symmetry_equiv_pos_as_xyz
  1  'x, y, z'
  2  'y, -x, -z'
  3  '-x, -y, z'
  4  '-y, x, -z'
  5  '-x, y, z+1/2'
  6  '-y, -x, -z+1/2'
  7  'x, -y, z+1/2'
  8  'y, x, -z+1/2'
loop_
 _atom_site_type_symbol
 _atom_site_label
 _atom_site_symmetry_multiplicity
 _atom_site_fract_x
 _atom_site_fract_y
 _atom_site_fract_z
 _atom_site_occupancy
  Cu  Cu0  4  0.24329806  0.24329806  0.75000000  1
  Cu  Cu1  2  0.00000000  0.00000000  0.00000000  1
  Cu  Cu2  2  0.00000000  0.00000000  0.25000000  1
  Au  Au3  4  0.00000000  0.50000000  0.18136638  1
  Au  Au4  2  0.50000000  0.50000000  0.00000000  1
  Au  Au5  2  0.50000000  0.50000000  0.25000000  1
# generated using pymatgen
data_ID_62
_symmetry_space_group_name_H-M   P4
_cell_length_a   5.17763595
_cell_length_b   5.17763595
_cell_length_c   13.93324777
_cell_angle_alpha   90.00000000
_cell_angle_beta   90.00000000
_cell_angle_gamma   90.00000000
_symmetry_Int_Tables_number   75
_chemical_formula_structural   CuAu
_cell_volume   373.52130895
_cell_formula_units_Z   8
loop_
 _symmetry_equiv_pos_site_id
 _symmetry_equiv_pos_as_xyz
  1  'x, y, z'
  2  '-y, x, z'
  3  '-x, -y, z'
  4  'y, -x, z'
loop_
 _atom_site_type_symbol
 _atom_site_label
 _atom_site_symmetry_multiplicity
 _atom_site_fract_x
 _atom_site_fract_y
 _atom_site_fract_z
 _atom_site_occupancy
  Cu  Cu0  4  0.25134502  0.74865303  0.06821805  1
  Cu  Cu1  2  0.00000000  0.50000000  0.19081863  1
  Cu  Cu2  1  0.00000000  0.00000000  0.38915620  1
  Cu  Cu3  1  0.50000000  0.50000000  0.20252194  1
  Au  Au4  4  0.19371193  0.30602221  0.53239749  1
  Au  Au5  2  0.00000000  0.50000000  0.36966232  1
  Au  Au6  2  0.00000000  0.50000000  0.94433280  1
# generated using pymatgen
data_ID_63
_symmetry_space_group_name_H-M   P4_132
_cell_length_a   7.07210506
_cell_length_b   7.07210506
_cell_length_c   7.07210506
_cell_angle_alpha   90.00000000
_cell_angle_beta   90.00000000
_cell_angle_gamma   90.00000000
_symmetry_Int_Tables_number   213
_chemical_formula_structural   CuAu
_cell_volume   353.70900037
_cell_formula_units_Z   8
loop_
 _symmetry_equiv_pos_site_id
 _symmetry_equiv_pos_as_xyz
  1  'x, y, z'
  2  '-y+1/4, x+3/4, z+1/4'
  3  '-x+1/2, -y, z+1/2'
  4  'y+1/4, -x+1/4, z+3/4'
  5  'x+1/2, -y+1/2, -z'
  6  '-y+3/4, -x+3/4, -z+3/4'
  7  '-x, y+1/2, -z+1/2'
  8  'y+3/4, x+1/4, -z+1/4'
  9  'z, x, y'
  10  'z+1/4, -y+1/4, x+3/4'
  11  'z+1/2, -x+1/2, -y'
  12  'z+3/4, y+1/4, -x+1/4'
  13  '-z, x+1/2, -y+1/2'
  14  '-z+3/4, -y+3/4, -x+3/4'
  15  '-z+1/2, -x, y+1/2'
  16  '-z+1/4, y+3/4, x+1/4'
  17  'y, z, x'
  18  'x+3/4, z+1/4, -y+1/4'
  19  '-y, z+1/2, -x+1/2'
  20  '-x+1/4, z+3/4, y+1/4'
  21  '-y+1/2, -z, x+1/2'
  22  '-x+3/4, -z+3/4, -y+3/4'
  23  'y+1/2, -z+1/2, -x'
  24  'x+1/4, -z+1/4, y+3/4'
loop_
 _atom_site_type_symbol
 _atom_site_label
 _atom_site_symmetry_multiplicity
 _atom_site_fract_x
 _atom_site_fract_y
 _atom_site_fract_z
 _atom_site_occupancy
  Cu  Cu0  8  0.08684631  0.91315369  0.41315369  1
  Au  Au1  4  0.12500000  0.37500000  0.62500000  1
  Au  Au2  4  0.12500000  0.62500000  0.87500000  1
# generated using pymatgen
data_ID_64
_symmetry_space_group_name_H-M   I4_1/amd
_cell_length_a   8.81535166
_cell_length_b   8.81535166
_cell_length_c   10.42103076
_cell_angle_alpha   90.00000000
_cell_angle_beta   90.00000000
_cell_angle_gamma   90.00000000
_symmetry_Int_Tables_number   141
_chemical_formula_structural   CuAu
_cell_volume   809.82272802
_cell_formula_units_Z   16
loop_
 _symmetry_equiv_pos_site_id
 _symmetry_equiv_pos_as_xyz
  1  'x, y, z'
  2  '-y, x+1/2, z+1/4'
  3  '-x+1/2, -y+1/2, z+1/2'
  4  'y+1/2, -x, z+3/4'
  5  'x, -y+1/2, -z+1/4'
  6  '-y, -x, -z'
  7  '-x+1/2, y, -z+3/4'
  8  'y+1/2, x+1/2, -z+1/2'
  9  '-x, -y+1/2, -z+1/4'
  10  'y, -x, -z'
  11  'x+1/2, y, -z+3/4'
  12  '-y+1/2, x+1/2, -z+1/2'
  13  '-x, y, z'
  14  'y, x+1/2, z+1/4'
  15  'x+1/2, -y+1/2, z+1/2'
  16  '-y+1/2, -x, z+3/4'
  17  'x+1/2, y+1/2, z+1/2'
  18  '-y+1/2, x, z+3/4'
  19  '-x, -y, z'
  20  'y, -x+1/2, z+1/4'
  21  'x+1/2, -y, -z+3/4'
  22  '-y+1/2, -x+1/2, -z+1/2'
  23  '-x, y+1/2, -z+1/4'
  24  'y, x, -z'
  25  '-x+1/2, -y, -z+3/4'
  26  'y+1/2, -x+1/2, -z+1/2'
  27  'x, y+1/2, -z+1/4'
  28  '-y, x, -z'
  29  '-x+1/2, y+1/2, z+1/2'
  30  'y+1/2, x, z+3/4'
  31  'x, -y, z'
  32  '-y, -x+1/2, z+1/4'
loop_
 _atom_site_type_symbol
 _atom_site_label
 _atom_site_symmetry_multiplicity
 _atom_site_fract_x
 _atom_site_fract_y
 _atom_site_fract_z
 _atom_site_occupancy
  Cu  Cu0  8  0.00000000  0.00000000  0.24469233  1
  Cu  Cu1  8  0.00000000  0.25000000  0.12500000  1
  Au  Au2  8  0.00000000  0.25000000  0.62500000  1
  Au  Au3  4  0.00000000  0.00000000  0.00000000  1
  Au  Au4  4  0.00000000  0.00000000  0.50000000  1
# generated using pymatgen
data_ID_65
_symmetry_space_group_name_H-M   P-1
_cell_length_a   5.10890700
_cell_length_b   5.74674641
_cell_length_c   9.05031166
_cell_angle_alpha   82.85248836
_cell_angle_beta   76.84998337
_cell_angle_gamma   64.82137173
_symmetry_Int_Tables_number   2
_chemical_formula_structural   CuAu
_cell_volume   234.04616307
_cell_formula_units_Z   8
loop_
 _symmetry_equiv_pos_site_id
 _symmetry_equiv_pos_as_xyz
  1  'x, y, z'
  2  '-x, -y, -z'
loop_
 _atom_site_type_symbol
 _atom_site_label
 _atom_site_symmetry_multiplicity
 _atom_site_fract_x
 _atom_site_fract_y
 _atom_site_fract_z
 _atom_site_occupancy
  Cu  Cu0  2  0.23738449  0.73025889  0.74638244  1
  Cu  Cu1  2  0.40198417  0.62579652  0.11622909  1
  Cu  Cu2  1  0.00000000  0.50000000  0.50000000  1
  Cu  Cu3  1  0.50000000  0.00000000  0.00000000  1
  Cu  Cu4  1  0.50000000  0.00000000  0.50000000  1
  Cu  Cu5  1  0.50000000  0.50000000  0.50000000  1
  Au  Au6  2  0.13078061  0.86833697  0.36971971  1
  Au  Au7  2  0.25813446  0.24576740  0.74426891  1
  Au  Au8  2  0.27277685  0.26092242  0.25042783  1
  Au  Au9  1  0.00000000  0.00000000  0.00000000  1
  Au  Au10  1  0.00000000  0.50000000  0.00000000  1
# generated using pymatgen
data_ID_66
_symmetry_space_group_name_H-M   Pm-3m
_cell_length_a   3.02656345
_cell_length_b   3.02656345
_cell_length_c   3.02656345
_cell_angle_alpha   90.00000000
_cell_angle_beta   90.00000000
_cell_angle_gamma   90.00000000
_symmetry_Int_Tables_number   221
_chemical_formula_structural   CuAu
_cell_volume   27.72358252
_cell_formula_units_Z   1
loop_
 _symmetry_equiv_pos_site_id
 _symmetry_equiv_pos_as_xyz
  1  'x, y, z'
  2  '-x, -y, -z'
  3  '-y, x, z'
  4  'y, -x, -z'
  5  '-x, -y, z'
  6  'x, y, -z'
  7  'y, -x, z'
  8  '-y, x, -z'
  9  'x, -y, -z'
  10  '-x, y, z'
  11  '-y, -x, -z'
  12  'y, x, z'
  13  '-x, y, -z'
  14  'x, -y, z'
  15  'y, x, -z'
  16  '-y, -x, z'
  17  'z, x, y'
  18  '-z, -x, -y'
  19  'z, -y, x'
  20  '-z, y, -x'
  21  'z, -x, -y'
  22  '-z, x, y'
  23  'z, y, -x'
  24  '-z, -y, x'
  25  '-z, x, -y'
  26  'z, -x, y'
  27  '-z, -y, -x'
  28  'z, y, x'
  29  '-z, -x, y'
  30  'z, x, -y'
  31  '-z, y, x'
  32  'z, -y, -x'
  33  'y, z, x'
  34  '-y, -z, -x'
  35  'x, z, -y'
  36  '-x, -z, y'
  37  '-y, z, -x'
  38  'y, -z, x'
  39  '-x, z, y'
  40  'x, -z, -y'
  41  '-y, -z, x'
  42  'y, z, -x'
  43  '-x, -z, -y'
  44  'x, z, y'
  45  'y, -z, -x'
  46  '-y, z, x'
  47  'x, -z, y'
  48  '-x, z, -y'
loop_
 _atom_site_type_symbol
 _atom_site_label
 _atom_site_symmetry_multiplicity
 _atom_site_fract_x
 _atom_site_fract_y
 _atom_site_fract_z
 _atom_site_occupancy
  Cu  Cu0  1  0.50000000  0.50000000  0.50000000  1
  Au  Au1  1  0.00000000  0.00000000  0.00000000  1
# generated using pymatgen
data_ID_67
_symmetry_space_group_name_H-M   Cmmm
_cell_length_a   8.48331260
_cell_length_b   13.27164123
_cell_length_c   2.65254668
_cell_angle_alpha   90.00000000
_cell_angle_beta   90.00000000
_cell_angle_gamma   90.00000000
_symmetry_Int_Tables_number   65
_chemical_formula_structural   CuAu
_cell_volume   298.64354953
_cell_formula_units_Z   8
loop_
 _symmetry_equiv_pos_site_id
 _symmetry_equiv_pos_as_xyz
  1  'x, y, z'
  2  '-x, -y, -z'
  3  '-x, -y, z'
  4  'x, y, -z'
  5  'x, -y, -z'
  6  '-x, y, z'
  7  '-x, y, -z'
  8  'x, -y, z'
  9  'x+1/2, y+1/2, z'
  10  '-x+1/2, -y+1/2, -z'
  11  '-x+1/2, -y+1/2, z'
  12  'x+1/2, y+1/2, -z'
  13  'x+1/2, -y+1/2, -z'
  14  '-x+1/2, y+1/2, z'
  15  '-x+1/2, y+1/2, -z'
  16  'x+1/2, -y+1/2, z'
loop_
 _atom_site_type_symbol
 _atom_site_label
 _atom_site_symmetry_multiplicity
 _atom_site_fract_x
 _atom_site_fract_y
 _atom_site_fract_z
 _atom_site_occupancy
  Cu  Cu0  4  0.24713897  0.00000000  0.50000000  1
  Cu  Cu1  2  0.00000000  0.00000000  0.00000000  1
  Cu  Cu2  2  0.00000000  0.50000000  0.00000000  1
  Au  Au3  8  0.16417317  0.33583297  0.00000000  1
# generated using pymatgen
data_ID_68
_symmetry_space_group_name_H-M   Amm2
_cell_length_a   5.14439983
_cell_length_b   9.70587335
_cell_length_c   12.55193418
_cell_angle_alpha   90.00000000
_cell_angle_beta   90.00000000
_cell_angle_gamma   90.00000000
_symmetry_Int_Tables_number   38
_chemical_formula_structural   CuAu
_cell_volume   626.72928506
_cell_formula_units_Z   16
loop_
 _symmetry_equiv_pos_site_id
 _symmetry_equiv_pos_as_xyz
  1  'x, y, z'
  2  '-x, -y, z'
  3  '-x, y, z'
  4  'x, -y, z'
  5  'x, y+1/2, z+1/2'
  6  '-x, -y+1/2, z+1/2'
  7  '-x, y+1/2, z+1/2'
  8  'x, -y+1/2, z+1/2'
loop_
 _atom_site_type_symbol
 _atom_site_label
 _atom_site_symmetry_multiplicity
 _atom_site_fract_x
 _atom_site_fract_y
 _atom_site_fract_z
 _atom_site_occupancy
  Cu  Cu0  8  0.26789148  0.13845973  0.59876103  1
  Cu  Cu1  2  0.00000000  0.00000000  0.47267854  1
  Cu  Cu2  2  0.00000000  0.00000000  0.71331530  1
  Cu  Cu3  2  0.00000000  0.00000000  0.89690723  1
  Cu  Cu4  2  0.50000000  0.00000000  0.75396122  1
  Au  Au5  4  0.00000000  0.23649959  0.95977183  1
  Au  Au6  4  0.00000000  0.23790985  0.24550822  1
  Au  Au7  4  0.25183798  0.00000000  0.29346742  1
  Au  Au8  2  0.00000000  0.00000000  0.09800962  1
  Au  Au9  2  0.50000000  0.00000000  0.95282525  1
# generated using pymatgen
data_ID_69
_symmetry_space_group_name_H-M   P-4c2
_cell_length_a   3.77196938
_cell_length_b   3.77196938
_cell_length_c   23.50279876
_cell_angle_alpha   90.00000000
_cell_angle_beta   90.00000000
_cell_angle_gamma   90.00000000
_symmetry_Int_Tables_number   116
_chemical_formula_structural   CuAu
_cell_volume   334.39201633
_cell_formula_units_Z   8
loop_
 _symmetry_equiv_pos_site_id
 _symmetry_equiv_pos_as_xyz
  1  'x, y, z'
  2  'y, -x, -z'
  3  '-x, -y, z'
  4  '-y, x, -z'
  5  '-x, y, z+1/2'
  6  '-y, -x, -z+1/2'
  7  'x, -y, z+1/2'
  8  'y, x, -z+1/2'
loop_
 _atom_site_type_symbol
 _atom_site_label
 _atom_site_symmetry_multiplicity
 _atom_site_fract_x
 _atom_site_fract_y
 _atom_site_fract_z
 _atom_site_occupancy
  Cu  Cu0  4  0.00000000  0.50000000  0.06477008  1
  Cu  Cu1  2  0.50000000  0.50000000  0.00000000  1
  Cu  Cu2  2  0.50000000  0.50000000  0.25000000  1
  Au  Au3  8  0.24520719  0.25071065  0.34341168  1
# generated using pymatgen
data_ID_70
_symmetry_space_group_name_H-M   Fmmm
_cell_length_a   9.02024524
_cell_length_b   10.46163018
_cell_length_c   13.89925555
_cell_angle_alpha   90.00000000
_cell_angle_beta   90.00000000
_cell_angle_gamma   90.00000000
_symmetry_Int_Tables_number   69
_chemical_formula_structural   CuAu
_cell_volume   1311.62367991
_cell_formula_units_Z   32
loop_
 _symmetry_equiv_pos_site_id
 _symmetry_equiv_pos_as_xyz
  1  'x, y, z'
  2  '-x, -y, -z'
  3  '-x, -y, z'
  4  'x, y, -z'
  5  'x, -y, -z'
  6  '-x, y, z'
  7  '-x, y, -z'
  8  'x, -y, z'
  9  'x+1/2, y, z+1/2'
  10  '-x+1/2, -y, -z+1/2'
  11  '-x+1/2, -y, z+1/2'
  12  'x+1/2, y, -z+1/2'
  13  'x+1/2, -y, -z+1/2'
  14  '-x+1/2, y, z+1/2'
  15  '-x+1/2, y, -z+1/2'
  16  'x+1/2, -y, z+1/2'
  17  'x+1/2, y+1/2, z'
  18  '-x+1/2, -y+1/2, -z'
  19  '-x+1/2, -y+1/2, z'
  20  'x+1/2, y+1/2, -z'
  21  'x+1/2, -y+1/2, -z'
  22  '-x+1/2, y+1/2, z'
  23  '-x+1/2, y+1/2, -z'
  24  'x+1/2, -y+1/2, z'
  25  'x, y+1/2, z+1/2'
  26  '-x, -y+1/2, -z+1/2'
  27  '-x, -y+1/2, z+1/2'
  28  'x, y+1/2, -z+1/2'
  29  'x, -y+1/2, -z+1/2'
  30  '-x, y+1/2, z+1/2'
  31  '-x, y+1/2, -z+1/2'
  32  'x, -y+1/2, z+1/2'
loop_
 _atom_site_type_symbol
 _atom_site_label
 _atom_site_symmetry_multiplicity
 _atom_site_fract_x
 _atom_site_fract_y
 _atom_site_fract_z
 _atom_site_occupancy
  Cu  Cu0  16  0.12580290  0.25000000  0.25000000  1
  Cu  Cu1  8  0.25000000  0.00000000  0.25000000  1
  Cu  Cu2  4  0.00000000  0.00000000  0.00000000  1
  Cu  Cu3  4  0.00000000  0.00000000  0.50000000  1
  Au  Au4  32  0.24907543  0.12534349  0.90573457  1
# generated using pymatgen
data_ID_71
_symmetry_space_group_name_H-M   P6_3cm
_cell_length_a   4.75071878
_cell_length_b   4.75071878
_cell_length_c   18.01753160
_cell_angle_alpha   90.00000000
_cell_angle_beta   90.00000000
_cell_angle_gamma   120.00000000
_symmetry_Int_Tables_number   185
_chemical_formula_structural   CuAu
_cell_volume   352.16368604
_cell_formula_units_Z   8
loop_
 _symmetry_equiv_pos_site_id
 _symmetry_equiv_pos_as_xyz
  1  'x, y, z'
  2  'x-y, x, z+1/2'
  3  '-y, x-y, z'
  4  '-x, -y, z+1/2'
  5  '-x+y, -x, z'
  6  'y, -x+y, z+1/2'
  7  'y, x, z'
  8  'x, x-y, z+1/2'
  9  'x-y, -y, z'
  10  '-y, -x, z+1/2'
  11  '-x, -x+y, z'
  12  '-x+y, y, z+1/2'
loop_
 _atom_site_type_symbol
 _atom_site_label
 _atom_site_symmetry_multiplicity
 _atom_site_fract_x
 _atom_site_fract_y
 _atom_site_fract_z
 _atom_site_occupancy
  Cu  Cu0  4  0.33333333  0.66666667  0.97966049  1
  Cu  Cu1  2  0.00000000  0.00000000  0.10329576  1
  Cu  Cu2  2  0.00000000  0.00000000  0.47248987  1
  Au  Au3  6  0.00000000  0.33810165  0.85847773  1
  Au  Au4  2  0.00000000  0.00000000  0.23805124  1
# generated using pymatgen
data_ID_72
_symmetry_space_group_name_H-M   Cmm2
_cell_length_a   5.30164468
_cell_length_b   10.18573619
_cell_length_c   12.33392735
_cell_angle_alpha   90.00000000
_cell_angle_beta   90.00000000
_cell_angle_gamma   90.00000000
_symmetry_Int_Tables_number   35
_chemical_formula_structural   CuAu
_cell_volume   666.04631128
_cell_formula_units_Z   16
loop_
 _symmetry_equiv_pos_site_id
 _symmetry_equiv_pos_as_xyz
  1  'x, y, z'
  2  '-x, -y, z'
  3  '-x, y, z'
  4  'x, -y, z'
  5  'x+1/2, y+1/2, z'
  6  '-x+1/2, -y+1/2, z'
  7  '-x+1/2, y+1/2, z'
  8  'x+1/2, -y+1/2, z'
loop_
 _atom_site_type_symbol
 _atom_site_label
 _atom_site_symmetry_multiplicity
 _atom_site_fract_x
 _atom_site_fract_y
 _atom_site_fract_z
 _atom_site_occupancy
  Cu  Cu0  4  0.23351628  0.00000000  0.52545524  1
  Cu  Cu1  4  0.24219867  0.50000000  0.86119663  1
  Cu  Cu2  4  0.25000000  0.25000000  0.40081180  1
  Cu  Cu3  2  0.00000000  0.00000000  0.69546731  1
  Cu  Cu4  2  0.00000000  0.50000000  0.68782096  1
  Au  Au5  8  0.24840615  0.12590616  0.19990870  1
  Au  Au6  4  0.25000000  0.25000000  0.60970400  1
  Au  Au7  2  0.00000000  0.00000000  0.03190615  1
  Au  Au8  2  0.00000000  0.50000000  0.36249006  1
# generated using pymatgen
data_ID_73
_symmetry_space_group_name_H-M   P4/mbm
_cell_length_a   9.19151811
_cell_length_b   9.19151811
_cell_length_c   2.74699491
_cell_angle_alpha   90.00000000
_cell_angle_beta   90.00000000
_cell_angle_gamma   90.00000000
_symmetry_Int_Tables_number   127
_chemical_formula_structural   CuAu
_cell_volume   232.07713163
_cell_formula_units_Z   8
loop_
 _symmetry_equiv_pos_site_id
 _symmetry_equiv_pos_as_xyz
  1  'x, y, z'
  2  '-x, -y, -z'
  3  '-y, x, z'
  4  'y, -x, -z'
  5  '-x, -y, z'
  6  'x, y, -z'
  7  'y, -x, z'
  8  '-y, x, -z'
  9  'x+1/2, -y+1/2, -z'
  10  '-x+1/2, y+1/2, z'
  11  '-y+1/2, -x+1/2, -z'
  12  'y+1/2, x+1/2, z'
  13  '-x+1/2, y+1/2, -z'
  14  'x+1/2, -y+1/2, z'
  15  'y+1/2, x+1/2, -z'
  16  '-y+1/2, -x+1/2, z'
loop_
 _atom_site_type_symbol
 _atom_site_label
 _atom_site_symmetry_multiplicity
 _atom_site_fract_x
 _atom_site_fract_y
 _atom_site_fract_z
 _atom_site_occupancy
  Cu  Cu0  8  0.06376020  0.76932892  0.50000000  1
  Au  Au1  4  0.18952350  0.31047650  0.00000000  1
  Au  Au2  2  0.00000000  0.00000000  0.00000000  1
  Au  Au3  2  0.00000000  0.50000000  0.50000000  1
# generated using pymatgen
data_ID_74
_symmetry_space_group_name_H-M   P-3m1
_cell_length_a   7.59936881
_cell_length_b   7.59936881
_cell_length_c   6.36930096
_cell_angle_alpha   90.00000000
_cell_angle_beta   90.00000000
_cell_angle_gamma   120.00000000
_symmetry_Int_Tables_number   164
_chemical_formula_structural   CuAu
_cell_volume   318.54988094
_cell_formula_units_Z   8
loop_
 _symmetry_equiv_pos_site_id
 _symmetry_equiv_pos_as_xyz
  1  'x, y, z'
  2  '-x, -y, -z'
  3  '-y, x-y, z'
  4  'y, -x+y, -z'
  5  '-x+y, -x, z'
  6  'x-y, x, -z'
  7  'y, x, -z'
  8  '-y, -x, z'
  9  'x-y, -y, -z'
  10  '-x+y, y, z'
  11  '-x, -x+y, -z'
  12  'x, x-y, z'
loop_
 _atom_site_type_symbol
 _atom_site_label
 _atom_site_symmetry_multiplicity
 _atom_site_fract_x
 _atom_site_fract_y
 _atom_site_fract_z
 _atom_site_occupancy
  Cu  Cu0  3  0.00000000  0.50000000  0.00000000  1
  Cu  Cu1  2  0.00000000  0.00000000  0.33271768  1
  Cu  Cu2  2  0.33333333  0.66666667  0.31004962  1
  Cu  Cu3  1  0.00000000  0.00000000  0.00000000  1
  Au  Au4  6  0.00000000  0.33522760  0.50000000  1
  Au  Au5  2  0.33333333  0.66666667  0.75857219  1
# generated using pymatgen
data_ID_75
_symmetry_space_group_name_H-M   Pma2
_cell_length_a   5.31582150
_cell_length_b   4.98909711
_cell_length_c   8.94516869
_cell_angle_alpha   90.00000000
_cell_angle_beta   90.00000000
_cell_angle_gamma   90.00000000
_symmetry_Int_Tables_number   28
_chemical_formula_structural   CuAu
_cell_volume   237.23615762
_cell_formula_units_Z   8
loop_
 _symmetry_equiv_pos_site_id
 _symmetry_equiv_pos_as_xyz
  1  'x, y, z'
  2  '-x, -y, z'
  3  '-x+1/2, y, z'
  4  'x+1/2, -y, z'
loop_
 _atom_site_type_symbol
 _atom_site_label
 _atom_site_symmetry_multiplicity
 _atom_site_fract_x
 _atom_site_fract_y
 _atom_site_fract_z
 _atom_site_occupancy
  Cu  Cu0  2  0.00000000  0.00000000  0.62184792  1
  Cu  Cu1  2  0.00000000  0.50000000  0.31612590  1
  Cu  Cu2  2  0.25000000  0.74742298  0.10519368  1
  Cu  Cu3  2  0.25000000  0.98292200  0.85458261  1
  Au  Au4  2  0.00000000  0.00000000  0.34000288  1
  Au  Au5  2  0.00000000  0.50000000  0.85296488  1
  Au  Au6  2  0.25000000  0.24970967  0.09761140  1
  Au  Au7  2  0.25000000  0.49559268  0.57511691  1
# generated using pymatgen
data_ID_76
_symmetry_space_group_name_H-M   Ama2
_cell_length_a   4.75496655
_cell_length_b   7.23097143
_cell_length_c   13.71396127
_cell_angle_alpha   90.00000000
_cell_angle_beta   90.00000000
_cell_angle_gamma   90.00000000
_symmetry_Int_Tables_number   40
_chemical_formula_structural   CuAu
_cell_volume   471.52750458
_cell_formula_units_Z   16
loop_
 _symmetry_equiv_pos_site_id
 _symmetry_equiv_pos_as_xyz
  1  'x, y, z'
  2  '-x, -y, z'
  3  '-x+1/2, y, z'
  4  'x+1/2, -y, z'
  5  'x, y+1/2, z+1/2'
  6  '-x, -y+1/2, z+1/2'
  7  '-x+1/2, y+1/2, z+1/2'
  8  'x+1/2, -y+1/2, z+1/2'
loop_
 _atom_site_type_symbol
 _atom_site_label
 _atom_site_symmetry_multiplicity
 _atom_site_fract_x
 _atom_site_fract_y
 _atom_site_fract_z
 _atom_site_occupancy
  Cu  Cu0  4  0.00000000  0.00000000  0.09435696  1
  Cu  Cu1  4  0.00000000  0.00000000  0.92311812  1
  Cu  Cu2  4  0.25000000  0.06884472  0.24821236  1
  Cu  Cu3  4  0.25000000  0.16278819  0.43308211  1
  Au  Au4  4  0.25000000  0.19087303  0.63334690  1
  Au  Au5  4  0.25000000  0.27541256  0.83776121  1
  Au  Au6  4  0.25000000  0.32312330  0.03411217  1
  Au  Au7  4  0.25000000  0.40464490  0.25745918  1
# generated using pymatgen
data_ID_77
_symmetry_space_group_name_H-M   Amm2
_cell_length_a   8.46104783
_cell_length_b   7.73011742
_cell_length_c   9.33945702
_cell_angle_alpha   90.00000000
_cell_angle_beta   90.00000000
_cell_angle_gamma   90.00000000
_symmetry_Int_Tables_number   38
_chemical_formula_structural   CuAu
_cell_volume   610.84618863
_cell_formula_units_Z   16
loop_
 _symmetry_equiv_pos_site_id
 _symmetry_equiv_pos_as_xyz
  1  'x, y, z'
  2  '-x, -y, z'
  3  '-x, y, z'
  4  'x, -y, z'
  5  'x, y+1/2, z+1/2'
  6  '-x, -y+1/2, z+1/2'
  7  '-x, y+1/2, z+1/2'
  8  'x, -y+1/2, z+1/2'
loop_
 _atom_site_type_symbol
 _atom_site_label
 _atom_site_symmetry_multiplicity
 _atom_site_fract_x
 _atom_site_fract_y
 _atom_site_fract_z
 _atom_site_occupancy
  Cu  Cu0  4  0.00000000  0.16650626  0.01852447  1
  Cu  Cu1  4  0.00000000  0.17173042  0.75922357  1
  Cu  Cu2  4  0.25476352  0.00000000  0.36241863  1
  Cu  Cu3  2  0.00000000  0.00000000  0.23957949  1
  Cu  Cu4  2  0.50000000  0.00000000  0.51381960  1
  Au  Au5  8  0.26180276  0.17872551  0.61498599  1
  Au  Au6  4  0.50000000  0.16922471  0.26167659  1
  Au  Au7  2  0.00000000  0.00000000  0.51636268  1
  Au  Au8  2  0.50000000  0.00000000  0.78934779  1
# generated using pymatgen
data_ID_78
_symmetry_space_group_name_H-M   P4_322
_cell_length_a   4.86684409
_cell_length_b   4.86684409
_cell_length_c   10.11455386
_cell_angle_alpha   90.00000000
_cell_angle_beta   90.00000000
_cell_angle_gamma   90.00000000
_symmetry_Int_Tables_number   95
_chemical_formula_structural   CuAu
_cell_volume   239.57505615
_cell_formula_units_Z   8
loop_
 _symmetry_equiv_pos_site_id
 _symmetry_equiv_pos_as_xyz
  1  'x, y, z'
  2  '-y, x, z+3/4'
  3  '-x, -y, z+1/2'
  4  'y, -x, z+1/4'
  5  'x, -y, -z+1/2'
  6  '-y, -x, -z+3/4'
  7  '-x, y, -z'
  8  'y, x, -z+1/4'
loop_
 _atom_site_type_symbol
 _atom_site_label
 _atom_site_symmetry_multiplicity
 _atom_site_fract_x
 _atom_site_fract_y
 _atom_site_fract_z
 _atom_site_occupancy
  Cu  Cu0  8  0.14165590  0.49059275  0.88095800  1
  Au  Au1  4  0.00000000  0.03847948  0.50000000  1
  Au  Au2  4  0.35439055  0.35439055  0.12500000  1
# generated using pymatgen
data_ID_79
_symmetry_space_group_name_H-M   P4/mmm
_cell_length_a   4.92957229
_cell_length_b   4.92957229
_cell_length_c   2.61109320
_cell_angle_alpha   90.00000000
_cell_angle_beta   90.00000000
_cell_angle_gamma   90.00000000
_symmetry_Int_Tables_number   123
_chemical_formula_structural   CuAu
_cell_volume   63.45134802
_cell_formula_units_Z   2
loop_
 _symmetry_equiv_pos_site_id
 _symmetry_equiv_pos_as_xyz
  1  'x, y, z'
  2  '-x, -y, -z'
  3  '-y, x, z'
  4  'y, -x, -z'
  5  '-x, -y, z'
  6  'x, y, -z'
  7  'y, -x, z'
  8  '-y, x, -z'
  9  'x, -y, -z'
  10  '-x, y, z'
  11  '-y, -x, -z'
  12  'y, x, z'
  13  '-x, y, -z'
  14  'x, -y, z'
  15  'y, x, -z'
  16  '-y, -x, z'
loop_
 _atom_site_type_symbol
 _atom_site_label
 _atom_site_symmetry_multiplicity
 _atom_site_fract_x
 _atom_site_fract_y
 _atom_site_fract_z
 _atom_site_occupancy
  Cu  Cu0  2  0.00000000  0.50000000  0.50000000  1
  Au  Au1  1  0.00000000  0.00000000  0.00000000  1
  Au  Au2  1  0.50000000  0.50000000  0.50000000  1
# generated using pymatgen
data_ID_80
_symmetry_space_group_name_H-M   Pm-3m
_cell_length_a   3.02754937
_cell_length_b   3.02754937
_cell_length_c   3.02754937
_cell_angle_alpha   90.00000000
_cell_angle_beta   90.00000000
_cell_angle_gamma   90.00000000
_symmetry_Int_Tables_number   221
_chemical_formula_structural   CuAu
_cell_volume   27.75068463
_cell_formula_units_Z   1
loop_
 _symmetry_equiv_pos_site_id
 _symmetry_equiv_pos_as_xyz
  1  'x, y, z'
  2  '-x, -y, -z'
  3  '-y, x, z'
  4  'y, -x, -z'
  5  '-x, -y, z'
  6  'x, y, -z'
  7  'y, -x, z'
  8  '-y, x, -z'
  9  'x, -y, -z'
  10  '-x, y, z'
  11  '-y, -x, -z'
  12  'y, x, z'
  13  '-x, y, -z'
  14  'x, -y, z'
  15  'y, x, -z'
  16  '-y, -x, z'
  17  'z, x, y'
  18  '-z, -x, -y'
  19  'z, -y, x'
  20  '-z, y, -x'
  21  'z, -x, -y'
  22  '-z, x, y'
  23  'z, y, -x'
  24  '-z, -y, x'
  25  '-z, x, -y'
  26  'z, -x, y'
  27  '-z, -y, -x'
  28  'z, y, x'
  29  '-z, -x, y'
  30  'z, x, -y'
  31  '-z, y, x'
  32  'z, -y, -x'
  33  'y, z, x'
  34  '-y, -z, -x'
  35  'x, z, -y'
  36  '-x, -z, y'
  37  '-y, z, -x'
  38  'y, -z, x'
  39  '-x, z, y'
  40  'x, -z, -y'
  41  '-y, -z, x'
  42  'y, z, -x'
  43  '-x, -z, -y'
  44  'x, z, y'
  45  'y, -z, -x'
  46  '-y, z, x'
  47  'x, -z, y'
  48  '-x, z, -y'
loop_
 _atom_site_type_symbol
 _atom_site_label
 _atom_site_symmetry_multiplicity
 _atom_site_fract_x
 _atom_site_fract_y
 _atom_site_fract_z
 _atom_site_occupancy
  Cu  Cu0  1  0.00000000  0.00000000  0.00000000  1
  Au  Au1  1  0.50000000  0.50000000  0.50000000  1
# generated using pymatgen
data_ID_81
_symmetry_space_group_name_H-M   P4_2/mmc
_cell_length_a   4.51492463
_cell_length_b   4.51492463
_cell_length_c   9.58575981
_cell_angle_alpha   90.00000000
_cell_angle_beta   90.00000000
_cell_angle_gamma   90.00000000
_symmetry_Int_Tables_number   131
_chemical_formula_structural   CuAu
_cell_volume   195.40134619
_cell_formula_units_Z   4
loop_
 _symmetry_equiv_pos_site_id
 _symmetry_equiv_pos_as_xyz
  1  'x, y, z'
  2  '-x, -y, -z'
  3  '-y, x, z+1/2'
  4  'y, -x, -z+1/2'
  5  '-x, -y, z'
  6  'x, y, -z'
  7  'y, -x, z+1/2'
  8  '-y, x, -z+1/2'
  9  'x, -y, -z'
  10  '-x, y, z'
  11  '-y, -x, -z+1/2'
  12  'y, x, z+1/2'
  13  '-x, y, -z'
  14  'x, -y, z'
  15  'y, x, -z+1/2'
  16  '-y, -x, z+1/2'
loop_
 _atom_site_type_symbol
 _atom_site_label
 _atom_site_symmetry_multiplicity
 _atom_site_fract_x
 _atom_site_fract_y
 _atom_site_fract_z
 _atom_site_occupancy
  Cu  Cu0  2  0.00000000  0.50000000  0.50000000  1
  Cu  Cu1  2  0.50000000  0.50000000  0.25000000  1
  Au  Au2  2  0.00000000  0.00000000  0.25000000  1
  Au  Au3  2  0.50000000  0.50000000  0.00000000  1
# generated using pymatgen
data_ID_82
_symmetry_space_group_name_H-M   P-42c
_cell_length_a   6.90263159
_cell_length_b   6.90263159
_cell_length_c   5.37262167
_cell_angle_alpha   90.00000000
_cell_angle_beta   90.00000000
_cell_angle_gamma   90.00000000
_symmetry_Int_Tables_number   112
_chemical_formula_structural   CuAu
_cell_volume   255.98566687
_cell_formula_units_Z   8
loop_
 _symmetry_equiv_pos_site_id
 _symmetry_equiv_pos_as_xyz
  1  'x, y, z'
  2  'y, -x, -z'
  3  '-x, -y, z'
  4  '-y, x, -z'
  5  'x, -y, -z+1/2'
  6  'y, x, z+1/2'
  7  '-x, y, -z+1/2'
  8  '-y, -x, z+1/2'
loop_
 _atom_site_type_symbol
 _atom_site_label
 _atom_site_symmetry_multiplicity
 _atom_site_fract_x
 _atom_site_fract_y
 _atom_site_fract_z
 _atom_site_occupancy
  Cu  Cu0  4  0.17904313  0.50000000  0.25000000  1
  Cu  Cu1  2  0.00000000  0.50000000  0.75000000  1
  Cu  Cu2  2  0.50000000  0.50000000  0.00000000  1
  Au  Au3  8  0.17574764  0.20922855  0.54327913  1
# generated using pymatgen
data_ID_83
_symmetry_space_group_name_H-M   F222
_cell_length_a   7.85338359
_cell_length_b   8.71077237
_cell_length_c   14.75933969
_cell_angle_alpha   90.00000000
_cell_angle_beta   90.00000000
_cell_angle_gamma   90.00000000
_symmetry_Int_Tables_number   22
_chemical_formula_structural   CuAu
_cell_volume   1009.67221178
_cell_formula_units_Z   32
loop_
 _symmetry_equiv_pos_site_id
 _symmetry_equiv_pos_as_xyz
  1  'x, y, z'
  2  '-x, -y, z'
  3  'x, -y, -z'
  4  '-x, y, -z'
  5  'x+1/2, y, z+1/2'
  6  '-x+1/2, -y, z+1/2'
  7  'x+1/2, -y, -z+1/2'
  8  '-x+1/2, y, -z+1/2'
  9  'x+1/2, y+1/2, z'
  10  '-x+1/2, -y+1/2, z'
  11  'x+1/2, -y+1/2, -z'
  12  '-x+1/2, y+1/2, -z'
  13  'x, y+1/2, z+1/2'
  14  '-x, -y+1/2, z+1/2'
  15  'x, -y+1/2, -z+1/2'
  16  '-x, y+1/2, -z+1/2'
loop_
 _atom_site_type_symbol
 _atom_site_label
 _atom_site_symmetry_multiplicity
 _atom_site_fract_x
 _atom_site_fract_y
 _atom_site_fract_z
 _atom_site_occupancy
  Cu  Cu0  16  0.08223159  0.24626988  0.92454760  1
  Cu  Cu1  8  0.00000000  0.00000000  0.33762394  1
  Cu  Cu2  4  0.00000000  0.00000000  0.00000000  1
  Cu  Cu3  4  0.25000000  0.25000000  0.25000000  1
  Au  Au4  16  0.16903339  0.01215031  0.16158273  1
  Au  Au5  8  0.07735831  0.25000000  0.75000000  1
  Au  Au6  8  0.17002778  0.00000000  0.50000000  1
# generated using pymatgen
data_ID_84
_symmetry_space_group_name_H-M   I4/mmm
_cell_length_a   6.11874003
_cell_length_b   6.11874003
_cell_length_c   5.92878746
_cell_angle_alpha   90.00000000
_cell_angle_beta   90.00000000
_cell_angle_gamma   90.00000000
_symmetry_Int_Tables_number   139
_chemical_formula_structural   CuAu
_cell_volume   221.96775243
_cell_formula_units_Z   8
loop_
 _symmetry_equiv_pos_site_id
 _symmetry_equiv_pos_as_xyz
  1  'x, y, z'
  2  '-x, -y, -z'
  3  '-y, x, z'
  4  'y, -x, -z'
  5  '-x, -y, z'
  6  'x, y, -z'
  7  'y, -x, z'
  8  '-y, x, -z'
  9  'x, -y, -z'
  10  '-x, y, z'
  11  '-y, -x, -z'
  12  'y, x, z'
  13  '-x, y, -z'
  14  'x, -y, z'
  15  'y, x, -z'
  16  '-y, -x, z'
  17  'x, y+1/2, z'
  18  '-x, -y+1/2, -z'
  19  '-y, x+1/2, z'
  20  'y, -x+1/2, -z'
  21  '-x, -y+1/2, z'
  22  'x, y+1/2, -z'
  23  'y, -x+1/2, z'
  24  '-y, x+1/2, -z'
  25  'x, -y+1/2, -z'
  26  '-x, y+1/2, z'
  27  '-y, -x+1/2, -z'
  28  'y, x+1/2, z'
  29  '-x, y+1/2, -z'
  30  'x, -y+1/2, z'
  31  'y, x+1/2, -z'
  32  '-y, -x+1/2, z'
  33  'x+1/2, y, z'
  34  '-x+1/2, -y, -z'
  35  '-y+1/2, x, z'
  36  'y+1/2, -x, -z'
  37  '-x+1/2, -y, z'
  38  'x+1/2, y, -z'
  39  'y+1/2, -x, z'
  40  '-y+1/2, x, -z'
  41  'x+1/2, -y, -z'
  42  '-x+1/2, y, z'
  43  '-y+1/2, -x, -z'
  44  'y+1/2, x, z'
  45  '-x+1/2, y, -z'
  46  'x+1/2, -y, z'
  47  'y+1/2, x, -z'
  48  '-y+1/2, -x, z'
  49  'x+1/2, y+1/2, z'
  50  '-x+1/2, -y+1/2, -z'
  51  '-y+1/2, x+1/2, z'
  52  'y+1/2, -x+1/2, -z'
  53  '-x+1/2, -y+1/2, z'
  54  'x+1/2, y+1/2, -z'
  55  'y+1/2, -x+1/2, z'
  56  '-y+1/2, x+1/2, -z'
  57  'x+1/2, -y+1/2, -z'
  58  '-x+1/2, y+1/2, z'
  59  '-y+1/2, -x+1/2, -z'
  60  'y+1/2, x+1/2, z'
  61  '-x+1/2, y+1/2, -z'
  62  'x+1/2, -y+1/2, z'
  63  'y+1/2, x+1/2, -z'
  64  '-y+1/2, -x+1/2, z'
  65  'x, y, z+1/2'
  66  '-x, -y, -z+1/2'
  67  '-y, x, z+1/2'
  68  'y, -x, -z+1/2'
  69  '-x, -y, z+1/2'
  70  'x, y, -z+1/2'
  71  'y, -x, z+1/2'
  72  '-y, x, -z+1/2'
  73  'x, -y, -z+1/2'
  74  '-x, y, z+1/2'
  75  '-y, -x, -z+1/2'
  76  'y, x, z+1/2'
  77  '-x, y, -z+1/2'
  78  'x, -y, z+1/2'
  79  'y, x, -z+1/2'
  80  '-y, -x, z+1/2'
  81  'x, y+1/2, z+1/2'
  82  '-x, -y+1/2, -z+1/2'
  83  '-y, x+1/2, z+1/2'
  84  'y, -x+1/2, -z+1/2'
  85  '-x, -y+1/2, z+1/2'
  86  'x, y+1/2, -z+1/2'
  87  'y, -x+1/2, z+1/2'
  88  '-y, x+1/2, -z+1/2'
  89  'x, -y+1/2, -z+1/2'
  90  '-x, y+1/2, z+1/2'
  91  '-y, -x+1/2, -z+1/2'
  92  'y, x+1/2, z+1/2'
  93  '-x, y+1/2, -z+1/2'
  94  'x, -y+1/2, z+1/2'
  95  'y, x+1/2, -z+1/2'
  96  '-y, -x+1/2, z+1/2'
  97  'x+1/2, y, z+1/2'
  98  '-x+1/2, -y, -z+1/2'
  99  '-y+1/2, x, z+1/2'
  100  'y+1/2, -x, -z+1/2'
  101  '-x+1/2, -y, z+1/2'
  102  'x+1/2, y, -z+1/2'
  103  'y+1/2, -x, z+1/2'
  104  '-y+1/2, x, -z+1/2'
  105  'x+1/2, -y, -z+1/2'
  106  '-x+1/2, y, z+1/2'
  107  '-y+1/2, -x, -z+1/2'
  108  'y+1/2, x, z+1/2'
  109  '-x+1/2, y, -z+1/2'
  110  'x+1/2, -y, z+1/2'
  111  'y+1/2, x, -z+1/2'
  112  '-y+1/2, -x, z+1/2'
  113  'x+1/2, y+1/2, z+1/2'
  114  '-x+1/2, -y+1/2, -z+1/2'
  115  '-y+1/2, x+1/2, z+1/2'
  116  'y+1/2, -x+1/2, -z+1/2'
  117  '-x+1/2, -y+1/2, z+1/2'
  118  'x+1/2, y+1/2, -z+1/2'
  119  'y+1/2, -x+1/2, z+1/2'
  120  '-y+1/2, x+1/2, -z+1/2'
  121  'x+1/2, -y+1/2, -z+1/2'
  122  '-x+1/2, y+1/2, z+1/2'
  123  '-y+1/2, -x+1/2, -z+1/2'
  124  'y+1/2, x+1/2, z+1/2'
  125  '-x+1/2, y+1/2, -z+1/2'
  126  'x+1/2, -y+1/2, z+1/2'
  127  'y+1/2, x+1/2, -z+1/2'
  128  '-y+1/2, -x+1/2, z+1/2'
loop_
 _atom_site_type_symbol
 _atom_site_label
 _atom_site_symmetry_multiplicity
 _atom_site_fract_x
 _atom_site_fract_y
 _atom_site_fract_z
 _atom_site_occupancy
  Cu  Cu0  8  0.24959426  0.75040574  0.50000000  1
  Au  Au1  8  0.00000000  0.00000000  0.24932384  1
# generated using pymatgen
data_ID_85
_symmetry_space_group_name_H-M   P-43n
_cell_length_a   6.81758820
_cell_length_b   6.81758820
_cell_length_c   6.81758820
_cell_angle_alpha   90.00000000
_cell_angle_beta   90.00000000
_cell_angle_gamma   90.00000000
_symmetry_Int_Tables_number   218
_chemical_formula_structural   CuAu
_cell_volume   316.87815066
_cell_formula_units_Z   8
loop_
 _symmetry_equiv_pos_site_id
 _symmetry_equiv_pos_as_xyz
  1  'x, y, z'
  2  'y+1/2, -x+1/2, -z+1/2'
  3  '-x, -y, z'
  4  '-y+1/2, x+1/2, -z+1/2'
  5  'x, -y, -z'
  6  'y+1/2, x+1/2, z+1/2'
  7  '-x, y, -z'
  8  '-y+1/2, -x+1/2, z+1/2'
  9  'z, x, y'
  10  '-z+1/2, y+1/2, -x+1/2'
  11  'z, -x, -y'
  12  '-z+1/2, -y+1/2, x+1/2'
  13  '-z, x, -y'
  14  'z+1/2, y+1/2, x+1/2'
  15  '-z, -x, y'
  16  'z+1/2, -y+1/2, -x+1/2'
  17  'y, z, x'
  18  '-x+1/2, -z+1/2, y+1/2'
  19  '-y, z, -x'
  20  'x+1/2, -z+1/2, -y+1/2'
  21  '-y, -z, x'
  22  'x+1/2, z+1/2, y+1/2'
  23  'y, -z, -x'
  24  '-x+1/2, z+1/2, -y+1/2'
loop_
 _atom_site_type_symbol
 _atom_site_label
 _atom_site_symmetry_multiplicity
 _atom_site_fract_x
 _atom_site_fract_y
 _atom_site_fract_z
 _atom_site_occupancy
  Cu  Cu0  6  0.00000000  0.25000000  0.50000000  1
  Cu  Cu1  2  0.00000000  0.00000000  0.00000000  1
  Au  Au2  8  0.21619277  0.21619277  0.78380723  1
# generated using pymatgen
data_ID_86
_symmetry_space_group_name_H-M   P4/mmm
_cell_length_a   4.92455311
_cell_length_b   4.92455311
_cell_length_c   2.61598190
_cell_angle_alpha   90.00000000
_cell_angle_beta   90.00000000
_cell_angle_gamma   90.00000000
_symmetry_Int_Tables_number   123
_chemical_formula_structural   CuAu
_cell_volume   63.44076130
_cell_formula_units_Z   2
loop_
 _symmetry_equiv_pos_site_id
 _symmetry_equiv_pos_as_xyz
  1  'x, y, z'
  2  '-x, -y, -z'
  3  '-y, x, z'
  4  'y, -x, -z'
  5  '-x, -y, z'
  6  'x, y, -z'
  7  'y, -x, z'
  8  '-y, x, -z'
  9  'x, -y, -z'
  10  '-x, y, z'
  11  '-y, -x, -z'
  12  'y, x, z'
  13  '-x, y, -z'
  14  'x, -y, z'
  15  'y, x, -z'
  16  '-y, -x, z'
loop_
 _atom_site_type_symbol
 _atom_site_label
 _atom_site_symmetry_multiplicity
 _atom_site_fract_x
 _atom_site_fract_y
 _atom_site_fract_z
 _atom_site_occupancy
  Cu  Cu0  1  0.00000000  0.00000000  0.00000000  1
  Cu  Cu1  1  0.50000000  0.50000000  0.50000000  1
  Au  Au2  2  0.00000000  0.50000000  0.00000000  1
# generated using pymatgen
data_ID_87
_symmetry_space_group_name_H-M   P4_132
_cell_length_a   7.00053249
_cell_length_b   7.00053249
_cell_length_c   7.00053249
_cell_angle_alpha   90.00000000
_cell_angle_beta   90.00000000
_cell_angle_gamma   90.00000000
_symmetry_Int_Tables_number   213
_chemical_formula_structural   CuAu
_cell_volume   343.07828141
_cell_formula_units_Z   8
loop_
 _symmetry_equiv_pos_site_id
 _symmetry_equiv_pos_as_xyz
  1  'x, y, z'
  2  '-y+1/4, x+3/4, z+1/4'
  3  '-x+1/2, -y, z+1/2'
  4  'y+1/4, -x+1/4, z+3/4'
  5  'x+1/2, -y+1/2, -z'
  6  '-y+3/4, -x+3/4, -z+3/4'
  7  '-x, y+1/2, -z+1/2'
  8  'y+3/4, x+1/4, -z+1/4'
  9  'z, x, y'
  10  'z+1/4, -y+1/4, x+3/4'
  11  'z+1/2, -x+1/2, -y'
  12  'z+3/4, y+1/4, -x+1/4'
  13  '-z, x+1/2, -y+1/2'
  14  '-z+3/4, -y+3/4, -x+3/4'
  15  '-z+1/2, -x, y+1/2'
  16  '-z+1/4, y+3/4, x+1/4'
  17  'y, z, x'
  18  'x+3/4, z+1/4, -y+1/4'
  19  '-y, z+1/2, -x+1/2'
  20  '-x+1/4, z+3/4, y+1/4'
  21  '-y+1/2, -z, x+1/2'
  22  '-x+3/4, -z+3/4, -y+3/4'
  23  'y+1/2, -z+1/2, -x'
  24  'x+1/4, -z+1/4, y+3/4'
loop_
 _atom_site_type_symbol
 _atom_site_label
 _atom_site_symmetry_multiplicity
 _atom_site_fract_x
 _atom_site_fract_y
 _atom_site_fract_z
 _atom_site_occupancy
  Cu  Cu0  4  0.12500000  0.37500000  0.62500000  1
  Cu  Cu1  4  0.12500000  0.62500000  0.87500000  1
  Au  Au2  8  0.08171717  0.91828283  0.41828283  1
# generated using pymatgen
data_ID_88
_symmetry_space_group_name_H-M   C2/c
_cell_length_a   7.43519430
_cell_length_b   8.97755112
_cell_length_c   7.12376253
_cell_angle_alpha   90.00000000
_cell_angle_beta   91.71871549
_cell_angle_gamma   90.00000000
_symmetry_Int_Tables_number   15
_chemical_formula_structural   CuAu
_cell_volume   475.29606260
_cell_formula_units_Z   16
loop_
 _symmetry_equiv_pos_site_id
 _symmetry_equiv_pos_as_xyz
  1  'x, y, z'
  2  '-x, -y, -z'
  3  '-x, y, -z+1/2'
  4  'x, -y, z+1/2'
  5  'x+1/2, y+1/2, z'
  6  '-x+1/2, -y+1/2, -z'
  7  '-x+1/2, y+1/2, -z+1/2'
  8  'x+1/2, -y+1/2, z+1/2'
loop_
 _atom_site_type_symbol
 _atom_site_label
 _atom_site_symmetry_multiplicity
 _atom_site_fract_x
 _atom_site_fract_y
 _atom_site_fract_z
 _atom_site_occupancy
  Cu  Cu0  8  0.24017135  0.48872663  0.25233431  1
  Cu  Cu1  4  0.00000000  0.50000000  0.00000000  1
  Cu  Cu2  4  0.25000000  0.25000000  0.00000000  1
  Au  Au3  8  0.13080322  0.25999239  0.63245463  1
  Au  Au4  4  0.00000000  0.00000000  0.00000000  1
  Au  Au5  4  0.00000000  0.25389989  0.25000000  1
# generated using pymatgen
data_ID_89
_symmetry_space_group_name_H-M   P4_2/mmc
_cell_length_a   2.66259796
_cell_length_b   2.66259796
_cell_length_c   18.12801767
_cell_angle_alpha   90.00000000
_cell_angle_beta   90.00000000
_cell_angle_gamma   90.00000000
_symmetry_Int_Tables_number   131
_chemical_formula_structural   CuAu
_cell_volume   128.51727393
_cell_formula_units_Z   4
loop_
 _symmetry_equiv_pos_site_id
 _symmetry_equiv_pos_as_xyz
  1  'x, y, z'
  2  '-x, -y, -z'
  3  '-y, x, z+1/2'
  4  'y, -x, -z+1/2'
  5  '-x, -y, z'
  6  'x, y, -z'
  7  'y, -x, z+1/2'
  8  '-y, x, -z+1/2'
  9  'x, -y, -z'
  10  '-x, y, z'
  11  '-y, -x, -z+1/2'
  12  'y, x, z+1/2'
  13  '-x, y, -z'
  14  'x, -y, z'
  15  'y, x, -z+1/2'
  16  '-y, -x, z+1/2'
loop_
 _atom_site_type_symbol
 _atom_site_label
 _atom_site_symmetry_multiplicity
 _atom_site_fract_x
 _atom_site_fract_y
 _atom_site_fract_z
 _atom_site_occupancy
  Cu  Cu0  2  0.00000000  0.00000000  0.00000000  1
  Cu  Cu1  2  0.00000000  0.00000000  0.25000000  1
  Au  Au2  4  0.00000000  0.50000000  0.12498299  1
# generated using pymatgen
data_ID_90
_symmetry_space_group_name_H-M   P-4
_cell_length_a   5.01193423
_cell_length_b   5.01193423
_cell_length_c   10.69021164
_cell_angle_alpha   90.00000000
_cell_angle_beta   90.00000000
_cell_angle_gamma   90.00000000
_symmetry_Int_Tables_number   81
_chemical_formula_structural   CuAu
_cell_volume   268.53260751
_cell_formula_units_Z   8
loop_
 _symmetry_equiv_pos_site_id
 _symmetry_equiv_pos_as_xyz
  1  'x, y, z'
  2  'y, -x, -z'
  3  '-x, -y, z'
  4  '-y, x, -z'
loop_
 _atom_site_type_symbol
 _atom_site_label
 _atom_site_symmetry_multiplicity
 _atom_site_fract_x
 _atom_site_fract_y
 _atom_site_fract_z
 _atom_site_occupancy
  Cu  Cu0  2  0.00000000  0.50000000  0.11090009  1
  Cu  Cu1  2  0.00000000  0.50000000  0.35167145  1
  Cu  Cu2  2  0.50000000  0.50000000  0.21510665  1
  Cu  Cu3  1  0.00000000  0.00000000  0.50000000  1
  Cu  Cu4  1  0.50000000  0.50000000  0.00000000  1
  Au  Au5  4  0.04626438  0.25157871  0.88991768  1
  Au  Au6  4  0.23919093  0.41558290  0.58912359  1
# generated using pymatgen
data_ID_91
_symmetry_space_group_name_H-M   P4/mmm
_cell_length_a   2.78858743
_cell_length_b   2.78858743
_cell_length_c   3.59851376
_cell_angle_alpha   90.00000000
_cell_angle_beta   90.00000000
_cell_angle_gamma   90.00000000
_symmetry_Int_Tables_number   123
_chemical_formula_structural   CuAu
_cell_volume   27.98283410
_cell_formula_units_Z   1
loop_
 _symmetry_equiv_pos_site_id
 _symmetry_equiv_pos_as_xyz
  1  'x, y, z'
  2  '-x, -y, -z'
  3  '-y, x, z'
  4  'y, -x, -z'
  5  '-x, -y, z'
  6  'x, y, -z'
  7  'y, -x, z'
  8  '-y, x, -z'
  9  'x, -y, -z'
  10  '-x, y, z'
  11  '-y, -x, -z'
  12  'y, x, z'
  13  '-x, y, -z'
  14  'x, -y, z'
  15  'y, x, -z'
  16  '-y, -x, z'
loop_
 _atom_site_type_symbol
 _atom_site_label
 _atom_site_symmetry_multiplicity
 _atom_site_fract_x
 _atom_site_fract_y
 _atom_site_fract_z
 _atom_site_occupancy
  Cu  Cu0  1  0.50000000  0.50000000  0.00000000  1
  Au  Au1  1  0.00000000  0.00000000  0.50000000  1
# generated using pymatgen
data_ID_92
_symmetry_space_group_name_H-M   P-3m1
_cell_length_a   7.71742636
_cell_length_b   7.71742636
_cell_length_c   5.38455803
_cell_angle_alpha   90.00000000
_cell_angle_beta   90.00000000
_cell_angle_gamma   120.00000000
_symmetry_Int_Tables_number   164
_chemical_formula_structural   CuAu
_cell_volume   277.73184655
_cell_formula_units_Z   8
loop_
 _symmetry_equiv_pos_site_id
 _symmetry_equiv_pos_as_xyz
  1  'x, y, z'
  2  '-x, -y, -z'
  3  '-y, x-y, z'
  4  'y, -x+y, -z'
  5  '-x+y, -x, z'
  6  'x-y, x, -z'
  7  'y, x, -z'
  8  '-y, -x, z'
  9  'x-y, -y, -z'
  10  '-x+y, y, z'
  11  '-x, -x+y, -z'
  12  'x, x-y, z'
loop_
 _atom_site_type_symbol
 _atom_site_label
 _atom_site_symmetry_multiplicity
 _atom_site_fract_x
 _atom_site_fract_y
 _atom_site_fract_z
 _atom_site_occupancy
  Cu  Cu0  6  0.06522107  0.53261053  0.28022435  1
  Cu  Cu1  2  0.33333333  0.66666667  0.58713365  1
  Au  Au2  6  0.20238386  0.40476772  0.92842491  1
  Au  Au3  1  0.00000000  0.00000000  0.00000000  1
  Au  Au4  1  0.00000000  0.00000000  0.50000000  1
# generated using pymatgen
data_ID_93
_symmetry_space_group_name_H-M   P4_2/nmc
_cell_length_a   5.15258150
_cell_length_b   5.15258150
_cell_length_c   17.76925202
_cell_angle_alpha   90.00000000
_cell_angle_beta   90.00000000
_cell_angle_gamma   90.00000000
_symmetry_Int_Tables_number   137
_chemical_formula_structural   CuAu
_cell_volume   471.75757971
_cell_formula_units_Z   8
loop_
 _symmetry_equiv_pos_site_id
 _symmetry_equiv_pos_as_xyz
  1  'x, y, z'
  2  '-y+1/2, x+1/2, z+1/2'
  3  '-x, -y, z'
  4  'y+1/2, -x+1/2, z+1/2'
  5  'x+1/2, -y+1/2, -z+1/2'
  6  '-y, -x, -z'
  7  '-x+1/2, y+1/2, -z+1/2'
  8  'y, x, -z'
  9  '-x+1/2, -y+1/2, -z+1/2'
  10  'y, -x, -z'
  11  'x+1/2, y+1/2, -z+1/2'
  12  '-y, x, -z'
  13  '-x, y, z'
  14  'y+1/2, x+1/2, z+1/2'
  15  'x, -y, z'
  16  '-y+1/2, -x+1/2, z+1/2'
loop_
 _atom_site_type_symbol
 _atom_site_label
 _atom_site_symmetry_multiplicity
 _atom_site_fract_x
 _atom_site_fract_y
 _atom_site_fract_z
 _atom_site_occupancy
  Cu  Cu0  8  0.25000000  0.25000000  0.25000000  1
  Au  Au1  4  0.00000000  0.00000000  0.14330888  1
  Au  Au2  4  0.00000000  0.50000000  0.14334421  1
# generated using pymatgen
data_ID_94
_symmetry_space_group_name_H-M   P4/mmm
_cell_length_a   3.01275876
_cell_length_b   3.01275876
_cell_length_c   3.05648067
_cell_angle_alpha   90.00000000
_cell_angle_beta   90.00000000
_cell_angle_gamma   90.00000000
_symmetry_Int_Tables_number   123
_chemical_formula_structural   CuAu
_cell_volume   27.74280507
_cell_formula_units_Z   1
loop_
 _symmetry_equiv_pos_site_id
 _symmetry_equiv_pos_as_xyz
  1  'x, y, z'
  2  '-x, -y, -z'
  3  '-y, x, z'
  4  'y, -x, -z'
  5  '-x, -y, z'
  6  'x, y, -z'
  7  'y, -x, z'
  8  '-y, x, -z'
  9  'x, -y, -z'
  10  '-x, y, z'
  11  '-y, -x, -z'
  12  'y, x, z'
  13  '-x, y, -z'
  14  'x, -y, z'
  15  'y, x, -z'
  16  '-y, -x, z'
loop_
 _atom_site_type_symbol
 _atom_site_label
 _atom_site_symmetry_multiplicity
 _atom_site_fract_x
 _atom_site_fract_y
 _atom_site_fract_z
 _atom_site_occupancy
  Cu  Cu0  1  0.50000000  0.50000000  0.00000000  1
  Au  Au1  1  0.00000000  0.00000000  0.50000000  1
# generated using pymatgen
data_ID_95
_symmetry_space_group_name_H-M   Im-3m
_cell_length_a   11.16766757
_cell_length_b   11.16766757
_cell_length_c   11.16766757
_cell_angle_alpha   90.00000000
_cell_angle_beta   90.00000000
_cell_angle_gamma   90.00000000
_symmetry_Int_Tables_number   229
_chemical_formula_structural   CuAu
_cell_volume   1392.79575292
_cell_formula_units_Z   16
loop_
 _symmetry_equiv_pos_site_id
 _symmetry_equiv_pos_as_xyz
  1  'x, y, z'
  2  '-x, -y, -z'
  3  '-y, x, z'
  4  'y, -x, -z'
  5  '-x, -y, z'
  6  'x, y, -z'
  7  'y, -x, z'
  8  '-y, x, -z'
  9  'x, -y, -z'
  10  '-x, y, z'
  11  '-y, -x, -z'
  12  'y, x, z'
  13  '-x, y, -z'
  14  'x, -y, z'
  15  'y, x, -z'
  16  '-y, -x, z'
  17  'z, x, y'
  18  '-z, -x, -y'
  19  'z, -y, x'
  20  '-z, y, -x'
  21  'z, -x, -y'
  22  '-z, x, y'
  23  'z, y, -x'
  24  '-z, -y, x'
  25  '-z, x, -y'
  26  'z, -x, y'
  27  '-z, -y, -x'
  28  'z, y, x'
  29  '-z, -x, y'
  30  'z, x, -y'
  31  '-z, y, x'
  32  'z, -y, -x'
  33  'y, z, x'
  34  '-y, -z, -x'
  35  'x, z, -y'
  36  '-x, -z, y'
  37  '-y, z, -x'
  38  'y, -z, x'
  39  '-x, z, y'
  40  'x, -z, -y'
  41  '-y, -z, x'
  42  'y, z, -x'
  43  '-x, -z, -y'
  44  'x, z, y'
  45  'y, -z, -x'
  46  '-y, z, x'
  47  'x, -z, y'
  48  '-x, z, -y'
  49  'x+1/2, y+1/2, z+1/2'
  50  '-x+1/2, -y+1/2, -z+1/2'
  51  '-y+1/2, x+1/2, z+1/2'
  52  'y+1/2, -x+1/2, -z+1/2'
  53  '-x+1/2, -y+1/2, z+1/2'
  54  'x+1/2, y+1/2, -z+1/2'
  55  'y+1/2, -x+1/2, z+1/2'
  56  '-y+1/2, x+1/2, -z+1/2'
  57  'x+1/2, -y+1/2, -z+1/2'
  58  '-x+1/2, y+1/2, z+1/2'
  59  '-y+1/2, -x+1/2, -z+1/2'
  60  'y+1/2, x+1/2, z+1/2'
  61  '-x+1/2, y+1/2, -z+1/2'
  62  'x+1/2, -y+1/2, z+1/2'
  63  'y+1/2, x+1/2, -z+1/2'
  64  '-y+1/2, -x+1/2, z+1/2'
  65  'z+1/2, x+1/2, y+1/2'
  66  '-z+1/2, -x+1/2, -y+1/2'
  67  'z+1/2, -y+1/2, x+1/2'
  68  '-z+1/2, y+1/2, -x+1/2'
  69  'z+1/2, -x+1/2, -y+1/2'
  70  '-z+1/2, x+1/2, y+1/2'
  71  'z+1/2, y+1/2, -x+1/2'
  72  '-z+1/2, -y+1/2, x+1/2'
  73  '-z+1/2, x+1/2, -y+1/2'
  74  'z+1/2, -x+1/2, y+1/2'
  75  '-z+1/2, -y+1/2, -x+1/2'
  76  'z+1/2, y+1/2, x+1/2'
  77  '-z+1/2, -x+1/2, y+1/2'
  78  'z+1/2, x+1/2, -y+1/2'
  79  '-z+1/2, y+1/2, x+1/2'
  80  'z+1/2, -y+1/2, -x+1/2'
  81  'y+1/2, z+1/2, x+1/2'
  82  '-y+1/2, -z+1/2, -x+1/2'
  83  'x+1/2, z+1/2, -y+1/2'
  84  '-x+1/2, -z+1/2, y+1/2'
  85  '-y+1/2, z+1/2, -x+1/2'
  86  'y+1/2, -z+1/2, x+1/2'
  87  '-x+1/2, z+1/2, y+1/2'
  88  'x+1/2, -z+1/2, -y+1/2'
  89  '-y+1/2, -z+1/2, x+1/2'
  90  'y+1/2, z+1/2, -x+1/2'
  91  '-x+1/2, -z+1/2, -y+1/2'
  92  'x+1/2, z+1/2, y+1/2'
  93  'y+1/2, -z+1/2, -x+1/2'
  94  '-y+1/2, z+1/2, x+1/2'
  95  'x+1/2, -z+1/2, y+1/2'
  96  '-x+1/2, z+1/2, -y+1/2'
loop_
 _atom_site_type_symbol
 _atom_site_label
 _atom_site_symmetry_multiplicity
 _atom_site_fract_x
 _atom_site_fract_y
 _atom_site_fract_z
 _atom_site_occupancy
  Cu  Cu0  8  0.25000000  0.25000000  0.25000000  1
  Cu  Cu1  6  0.00000000  0.00000000  0.50000000  1
  Cu  Cu2  2  0.00000000  0.00000000  0.00000000  1
  Au  Au3  16  0.12412847  0.12412847  0.12412847  1
# generated using pymatgen
data_ID_96
_symmetry_space_group_name_H-M   R-3m
_cell_length_a   8.90023105
_cell_length_b   8.90023105
_cell_length_c   10.37159294
_cell_angle_alpha   90.00000000
_cell_angle_beta   90.00000000
_cell_angle_gamma   120.00000000
_symmetry_Int_Tables_number   166
_chemical_formula_structural   CuAu
_cell_volume   711.50614784
_cell_formula_units_Z   24
loop_
 _symmetry_equiv_pos_site_id
 _symmetry_equiv_pos_as_xyz
  1  'x, y, z'
  2  '-x, -y, -z'
  3  '-y, x-y, z'
  4  'y, -x+y, -z'
  5  '-x+y, -x, z'
  6  'x-y, x, -z'
  7  'y, x, -z'
  8  '-y, -x, z'
  9  'x-y, -y, -z'
  10  '-x+y, y, z'
  11  '-x, -x+y, -z'
  12  'x, x-y, z'
  13  'x+2/3, y+1/3, z+1/3'
  14  '-x+2/3, -y+1/3, -z+1/3'
  15  '-y+2/3, x-y+1/3, z+1/3'
  16  'y+2/3, -x+y+1/3, -z+1/3'
  17  '-x+y+2/3, -x+1/3, z+1/3'
  18  'x-y+2/3, x+1/3, -z+1/3'
  19  'y+2/3, x+1/3, -z+1/3'
  20  '-y+2/3, -x+1/3, z+1/3'
  21  'x-y+2/3, -y+1/3, -z+1/3'
  22  '-x+y+2/3, y+1/3, z+1/3'
  23  '-x+2/3, -x+y+1/3, -z+1/3'
  24  'x+2/3, x-y+1/3, z+1/3'
  25  'x+1/3, y+2/3, z+2/3'
  26  '-x+1/3, -y+2/3, -z+2/3'
  27  '-y+1/3, x-y+2/3, z+2/3'
  28  'y+1/3, -x+y+2/3, -z+2/3'
  29  '-x+y+1/3, -x+2/3, z+2/3'
  30  'x-y+1/3, x+2/3, -z+2/3'
  31  'y+1/3, x+2/3, -z+2/3'
  32  '-y+1/3, -x+2/3, z+2/3'
  33  'x-y+1/3, -y+2/3, -z+2/3'
  34  '-x+y+1/3, y+2/3, z+2/3'
  35  '-x+1/3, -x+y+2/3, -z+2/3'
  36  'x+1/3, x-y+2/3, z+2/3'
loop_
 _atom_site_type_symbol
 _atom_site_label
 _atom_site_symmetry_multiplicity
 _atom_site_fract_x
 _atom_site_fract_y
 _atom_site_fract_z
 _atom_site_occupancy
  Cu  Cu0  18  0.01411260  0.50705630  0.11857124  1
  Cu  Cu1  3  0.00000000  0.00000000  0.00000000  1
  Cu  Cu2  3  0.00000000  0.00000000  0.50000000  1
  Au  Au3  18  0.00229911  0.50114956  0.36872458  1
  Au  Au4  6  0.00000000  0.00000000  0.24367973  1
# generated using pymatgen
data_ID_97
_symmetry_space_group_name_H-M   I4_122
_cell_length_a   7.15727525
_cell_length_b   7.15727525
_cell_length_c   10.34488935
_cell_angle_alpha   90.00000000
_cell_angle_beta   90.00000000
_cell_angle_gamma   90.00000000
_symmetry_Int_Tables_number   98
_chemical_formula_structural   CuAu
_cell_volume   529.93339452
_cell_formula_units_Z   16
loop_
 _symmetry_equiv_pos_site_id
 _symmetry_equiv_pos_as_xyz
  1  'x, y, z'
  2  '-y, x+1/2, z+1/4'
  3  '-x+1/2, -y+1/2, z+1/2'
  4  'y+1/2, -x, z+3/4'
  5  'x, -y+1/2, -z+1/4'
  6  '-y, -x, -z'
  7  '-x+1/2, y, -z+3/4'
  8  'y+1/2, x+1/2, -z+1/2'
  9  'x+1/2, y+1/2, z+1/2'
  10  '-y+1/2, x, z+3/4'
  11  '-x, -y, z'
  12  'y, -x+1/2, z+1/4'
  13  'x+1/2, -y, -z+3/4'
  14  '-y+1/2, -x+1/2, -z+1/2'
  15  '-x, y+1/2, -z+1/4'
  16  'y, x, -z'
loop_
 _atom_site_type_symbol
 _atom_site_label
 _atom_site_symmetry_multiplicity
 _atom_site_fract_x
 _atom_site_fract_y
 _atom_site_fract_z
 _atom_site_occupancy
  Cu  Cu0  8  0.00000000  0.00000000  0.18651745  1
  Cu  Cu1  8  0.00082796  0.25000000  0.62500000  1
  Au  Au2  8  0.18915112  0.18915112  0.00000000  1
  Au  Au3  8  0.19031259  0.69031259  0.25000000  1
# generated using pymatgen
data_ID_98
_symmetry_space_group_name_H-M   Fd-3m
_cell_length_a   11.62990277
_cell_length_b   11.62990277
_cell_length_c   11.62990277
_cell_angle_alpha   90.00000000
_cell_angle_beta   90.00000000
_cell_angle_gamma   90.00000000
_symmetry_Int_Tables_number   227
_chemical_formula_structural   CuAu
_cell_volume   1572.99829534
_cell_formula_units_Z   32
loop_
 _symmetry_equiv_pos_site_id
 _symmetry_equiv_pos_as_xyz
  1  'x, y, z'
  2  '-y+1/4, x+1/4, z+1/4'
  3  '-x, -y+1/2, z+1/2'
  4  'y+3/4, -x+1/4, z+3/4'
  5  'x, -y, -z'
  6  '-y+1/4, -x+3/4, -z+3/4'
  7  '-x, y+1/2, -z+1/2'
  8  'y+3/4, x+3/4, -z+1/4'
  9  'z, x, y'
  10  'z+1/4, -y+1/4, x+1/4'
  11  'z+1/2, -x, -y+1/2'
  12  'z+3/4, y+3/4, -x+1/4'
  13  '-z, x, -y'
  14  '-z+3/4, -y+1/4, -x+3/4'
  15  '-z+1/2, -x, y+1/2'
  16  '-z+1/4, y+3/4, x+3/4'
  17  'y, z, x'
  18  'x+1/4, z+1/4, -y+1/4'
  19  '-y+1/2, z+1/2, -x'
  20  '-x+1/4, z+3/4, y+3/4'
  21  '-y, -z, x'
  22  '-x+3/4, -z+3/4, -y+1/4'
  23  'y+1/2, -z+1/2, -x'
  24  'x+3/4, -z+1/4, y+3/4'
  25  '-x+1/4, -y+1/4, -z+1/4'
  26  'y, -x, -z'
  27  'x+1/4, y+3/4, -z+3/4'
  28  '-y+1/2, x, -z+1/2'
  29  '-x+1/4, y+1/4, z+1/4'
  30  'y, x+1/2, z+1/2'
  31  'x+1/4, -y+3/4, z+3/4'
  32  '-y+1/2, -x+1/2, z'
  33  '-z+1/4, -x+1/4, -y+1/4'
  34  '-z, y, -x'
  35  '-z+3/4, x+1/4, y+3/4'
  36  '-z+1/2, -y+1/2, x'
  37  'z+1/4, -x+1/4, y+1/4'
  38  'z+1/2, y, x+1/2'
  39  'z+3/4, x+1/4, -y+3/4'
  40  'z, -y+1/2, -x+1/2'
  41  '-y+1/4, -z+1/4, -x+1/4'
  42  '-x, -z, y'
  43  'y+3/4, -z+3/4, x+1/4'
  44  'x, -z+1/2, -y+1/2'
  45  'y+1/4, z+1/4, -x+1/4'
  46  'x+1/2, z+1/2, y'
  47  '-y+3/4, z+3/4, x+1/4'
  48  '-x+1/2, z, -y+1/2'
  49  'x+1/2, y+1/2, z'
  50  '-y+3/4, x+3/4, z+1/4'
  51  '-x+1/2, -y, z+1/2'
  52  'y+1/4, -x+3/4, z+3/4'
  53  'x+1/2, -y+1/2, -z'
  54  '-y+3/4, -x+1/4, -z+3/4'
  55  '-x+1/2, y, -z+1/2'
  56  'y+1/4, x+1/4, -z+1/4'
  57  'z+1/2, x+1/2, y'
  58  'z+3/4, -y+3/4, x+1/4'
  59  'z, -x+1/2, -y+1/2'
  60  'z+1/4, y+1/4, -x+1/4'
  61  '-z+1/2, x+1/2, -y'
  62  '-z+1/4, -y+3/4, -x+3/4'
  63  '-z, -x+1/2, y+1/2'
  64  '-z+3/4, y+1/4, x+3/4'
  65  'y+1/2, z+1/2, x'
  66  'x+3/4, z+3/4, -y+1/4'
  67  '-y, z, -x'
  68  '-x+3/4, z+1/4, y+3/4'
  69  '-y+1/2, -z+1/2, x'
  70  '-x+1/4, -z+1/4, -y+1/4'
  71  'y, -z, -x'
  72  'x+1/4, -z+3/4, y+3/4'
  73  '-x+3/4, -y+3/4, -z+1/4'
  74  'y+1/2, -x+1/2, -z'
  75  'x+3/4, y+1/4, -z+3/4'
  76  '-y, x+1/2, -z+1/2'
  77  '-x+3/4, y+3/4, z+1/4'
  78  'y+1/2, x, z+1/2'
  79  'x+3/4, -y+1/4, z+3/4'
  80  '-y, -x, z'
  81  '-z+3/4, -x+3/4, -y+1/4'
  82  '-z+1/2, y+1/2, -x'
  83  '-z+1/4, x+3/4, y+3/4'
  84  '-z, -y, x'
  85  'z+3/4, -x+3/4, y+1/4'
  86  'z, y+1/2, x+1/2'
  87  'z+1/4, x+3/4, -y+3/4'
  88  'z+1/2, -y, -x+1/2'
  89  '-y+3/4, -z+3/4, -x+1/4'
  90  '-x+1/2, -z+1/2, y'
  91  'y+1/4, -z+1/4, x+1/4'
  92  'x+1/2, -z, -y+1/2'
  93  'y+3/4, z+3/4, -x+1/4'
  94  'x, z, y'
  95  '-y+1/4, z+1/4, x+1/4'
  96  '-x, z+1/2, -y+1/2'
  97  'x+1/2, y, z+1/2'
  98  '-y+3/4, x+1/4, z+3/4'
  99  '-x+1/2, -y+1/2, z'
  100  'y+1/4, -x+1/4, z+1/4'
  101  'x+1/2, -y, -z+1/2'
  102  '-y+3/4, -x+3/4, -z+1/4'
  103  '-x+1/2, y+1/2, -z'
  104  'y+1/4, x+3/4, -z+3/4'
  105  'z+1/2, x, y+1/2'
  106  'z+3/4, -y+1/4, x+3/4'
  107  'z, -x, -y'
  108  'z+1/4, y+3/4, -x+3/4'
  109  '-z+1/2, x, -y+1/2'
  110  '-z+1/4, -y+1/4, -x+1/4'
  111  '-z, -x, y'
  112  '-z+3/4, y+3/4, x+1/4'
  113  'y+1/2, z, x+1/2'
  114  'x+3/4, z+1/4, -y+3/4'
  115  '-y, z+1/2, -x+1/2'
  116  '-x+3/4, z+3/4, y+1/4'
  117  '-y+1/2, -z, x+1/2'
  118  '-x+1/4, -z+3/4, -y+3/4'
  119  'y, -z+1/2, -x+1/2'
  120  'x+1/4, -z+1/4, y+1/4'
  121  '-x+3/4, -y+1/4, -z+3/4'
  122  'y+1/2, -x, -z+1/2'
  123  'x+3/4, y+3/4, -z+1/4'
  124  '-y, x, -z'
  125  '-x+3/4, y+1/4, z+3/4'
  126  'y+1/2, x+1/2, z'
  127  'x+3/4, -y+3/4, z+1/4'
  128  '-y, -x+1/2, z+1/2'
  129  '-z+3/4, -x+1/4, -y+3/4'
  130  '-z+1/2, y, -x+1/2'
  131  '-z+1/4, x+1/4, y+1/4'
  132  '-z, -y+1/2, x+1/2'
  133  'z+3/4, -x+1/4, y+3/4'
  134  'z, y, x'
  135  'z+1/4, x+1/4, -y+1/4'
  136  'z+1/2, -y+1/2, -x'
  137  '-y+3/4, -z+1/4, -x+3/4'
  138  '-x+1/2, -z, y+1/2'
  139  'y+1/4, -z+3/4, x+3/4'
  140  'x+1/2, -z+1/2, -y'
  141  'y+3/4, z+1/4, -x+3/4'
  142  'x, z+1/2, y+1/2'
  143  '-y+1/4, z+3/4, x+3/4'
  144  '-x, z, -y'
  145  'x, y+1/2, z+1/2'
  146  '-y+1/4, x+3/4, z+3/4'
  147  '-x, -y, z'
  148  'y+3/4, -x+3/4, z+1/4'
  149  'x, -y+1/2, -z+1/2'
  150  '-y+1/4, -x+1/4, -z+1/4'
  151  '-x, y, -z'
  152  'y+3/4, x+1/4, -z+3/4'
  153  'z, x+1/2, y+1/2'
  154  'z+1/4, -y+3/4, x+3/4'
  155  'z+1/2, -x+1/2, -y'
  156  'z+3/4, y+1/4, -x+3/4'
  157  '-z, x+1/2, -y+1/2'
  158  '-z+3/4, -y+3/4, -x+1/4'
  159  '-z+1/2, -x+1/2, y'
  160  '-z+1/4, y+1/4, x+1/4'
  161  'y, z+1/2, x+1/2'
  162  'x+1/4, z+3/4, -y+3/4'
  163  '-y+1/2, z, -x+1/2'
  164  '-x+1/4, z+1/4, y+1/4'
  165  '-y, -z+1/2, x+1/2'
  166  '-x+3/4, -z+1/4, -y+3/4'
  167  'y+1/2, -z, -x+1/2'
  168  'x+3/4, -z+3/4, y+1/4'
  169  '-x+1/4, -y+3/4, -z+3/4'
  170  'y, -x+1/2, -z+1/2'
  171  'x+1/4, y+1/4, -z+1/4'
  172  '-y+1/2, x+1/2, -z'
  173  '-x+1/4, y+3/4, z+3/4'
  174  'y, x, z'
  175  'x+1/4, -y+1/4, z+1/4'
  176  '-y+1/2, -x, z+1/2'
  177  '-z+1/4, -x+3/4, -y+3/4'
  178  '-z, y+1/2, -x+1/2'
  179  '-z+3/4, x+3/4, y+1/4'
  180  '-z+1/2, -y, x+1/2'
  181  'z+1/4, -x+3/4, y+3/4'
  182  'z+1/2, y+1/2, x'
  183  'z+3/4, x+3/4, -y+1/4'
  184  'z, -y, -x'
  185  '-y+1/4, -z+3/4, -x+3/4'
  186  '-x, -z+1/2, y+1/2'
  187  'y+3/4, -z+1/4, x+3/4'
  188  'x, -z, -y'
  189  'y+1/4, z+3/4, -x+3/4'
  190  'x+1/2, z, y+1/2'
  191  '-y+3/4, z+1/4, x+3/4'
  192  '-x+1/2, z+1/2, -y'
loop_
 _atom_site_type_symbol
 _atom_site_label
 _atom_site_symmetry_multiplicity
 _atom_site_fract_x
 _atom_site_fract_y
 _atom_site_fract_z
 _atom_site_occupancy
  Cu  Cu0  32  0.12407782  0.12407782  0.87592218  1
  Au  Au1  16  0.12500000  0.12500000  0.62500000  1
  Au  Au2  8  0.00000000  0.00000000  0.00000000  1
  Au  Au3  8  0.00000000  0.00000000  0.50000000  1
# generated using pymatgen
data_ID_99
_symmetry_space_group_name_H-M   Pn-3m
_cell_length_a   7.97783859
_cell_length_b   7.97783859
_cell_length_c   7.97783859
_cell_angle_alpha   90.00000000
_cell_angle_beta   90.00000000
_cell_angle_gamma   90.00000000
_symmetry_Int_Tables_number   224
_chemical_formula_structural   CuAu
_cell_volume   507.75678617
_cell_formula_units_Z   8
loop_
 _symmetry_equiv_pos_site_id
 _symmetry_equiv_pos_as_xyz
  1  'x, y, z'
  2  '-y+1/2, x+1/2, z+1/2'
  3  '-x, -y, z'
  4  'y+1/2, -x+1/2, z+1/2'
  5  'x, -y, -z'
  6  '-y+1/2, -x+1/2, -z+1/2'
  7  '-x, y, -z'
  8  'y+1/2, x+1/2, -z+1/2'
  9  'z, x, y'
  10  'z+1/2, -y+1/2, x+1/2'
  11  'z, -x, -y'
  12  'z+1/2, y+1/2, -x+1/2'
  13  '-z, x, -y'
  14  '-z+1/2, -y+1/2, -x+1/2'
  15  '-z, -x, y'
  16  '-z+1/2, y+1/2, x+1/2'
  17  'y, z, x'
  18  'x+1/2, z+1/2, -y+1/2'
  19  '-y, z, -x'
  20  '-x+1/2, z+1/2, y+1/2'
  21  '-y, -z, x'
  22  '-x+1/2, -z+1/2, -y+1/2'
  23  'y, -z, -x'
  24  'x+1/2, -z+1/2, y+1/2'
  25  '-x+1/2, -y+1/2, -z+1/2'
  26  'y, -x, -z'
  27  'x+1/2, y+1/2, -z+1/2'
  28  '-y, x, -z'
  29  '-x+1/2, y+1/2, z+1/2'
  30  'y, x, z'
  31  'x+1/2, -y+1/2, z+1/2'
  32  '-y, -x, z'
  33  '-z+1/2, -x+1/2, -y+1/2'
  34  '-z, y, -x'
  35  '-z+1/2, x+1/2, y+1/2'
  36  '-z, -y, x'
  37  'z+1/2, -x+1/2, y+1/2'
  38  'z, y, x'
  39  'z+1/2, x+1/2, -y+1/2'
  40  'z, -y, -x'
  41  '-y+1/2, -z+1/2, -x+1/2'
  42  '-x, -z, y'
  43  'y+1/2, -z+1/2, x+1/2'
  44  'x, -z, -y'
  45  'y+1/2, z+1/2, -x+1/2'
  46  'x, z, y'
  47  '-y+1/2, z+1/2, x+1/2'
  48  '-x, z, -y'
loop_
 _atom_site_type_symbol
 _atom_site_label
 _atom_site_symmetry_multiplicity
 _atom_site_fract_x
 _atom_site_fract_y
 _atom_site_fract_z
 _atom_site_occupancy
  Cu  Cu0  6  0.00000000  0.00000000  0.50000000  1
  Cu  Cu1  2  0.00000000  0.00000000  0.00000000  1
  Au  Au2  8  0.16518258  0.16518258  0.16518258  1
