# generated using pymatgen
data_ID_0
_symmetry_space_group_name_H-M   C222_1
_cell_length_a   4.71953085
_cell_length_b   7.44436346
_cell_length_c   5.63428801
_cell_angle_alpha   90.00000000
_cell_angle_beta   90.00000000
_cell_angle_gamma   90.00000000
_symmetry_Int_Tables_number   20
_chemical_formula_structural   Si
_cell_volume   197.95452847
_cell_formula_units_Z   16
loop_
 _symmetry_equiv_pos_site_id
 _symmetry_equiv_pos_as_xyz
  1  'x, y, z'
  2  '-x, -y, z+1/2'
  3  'x, -y, -z'
  4  '-x, y, -z+1/2'
  5  'x+1/2, y+1/2, z'
  6  '-x+1/2, -y+1/2, z+1/2'
  7  'x+1/2, -y+1/2, -z'
  8  '-x+1/2, y+1/2, -z+1/2'
loop_
 _atom_site_type_symbol
 _atom_site_label
 _atom_site_symmetry_multiplicity
 _atom_site_fract_x
 _atom_site_fract_y
 _atom_site_fract_z
 _atom_site_occupancy
  Si  Si0  8  0.06942931  0.34518870  0.08904371  1
  Si  Si1  4  0.00000000  0.36511151  0.75000000  1
  Si  Si2  4  0.18689432  0.50000000  0.00000000  1
# generated using pymatgen
data_ID_1
_symmetry_space_group_name_H-M   P4_32_12
_cell_length_a   4.86238127
_cell_length_b   4.86238127
_cell_length_c   11.92988968
_cell_angle_alpha   90.00000000
_cell_angle_beta   90.00000000
_cell_angle_gamma   90.00000000
_symmetry_Int_Tables_number   96
_chemical_formula_structural   Si
_cell_volume   282.05541876
_cell_formula_units_Z   8
loop_
 _symmetry_equiv_pos_site_id
 _symmetry_equiv_pos_as_xyz
  1  'x, y, z'
  2  '-y+1/2, x+1/2, z+3/4'
  3  '-x, -y, z+1/2'
  4  'y+1/2, -x+1/2, z+1/4'
  5  'x+1/2, -y+1/2, -z+1/4'
  6  '-y, -x, -z+1/2'
  7  '-x+1/2, y+1/2, -z+3/4'
  8  'y, x, -z'
loop_
 _atom_site_type_symbol
 _atom_site_label
 _atom_site_symmetry_multiplicity
 _atom_site_fract_x
 _atom_site_fract_y
 _atom_site_fract_z
 _atom_site_occupancy
  Si  Si0  8  0.16911296  0.30324335  0.53087151  1
# generated using pymatgen
data_ID_2
_symmetry_space_group_name_H-M   P4_22_12
_cell_length_a   6.53863835
_cell_length_b   6.53863835
_cell_length_c   3.41921622
_cell_angle_alpha   90.00000000
_cell_angle_beta   90.00000000
_cell_angle_gamma   90.00000000
_symmetry_Int_Tables_number   94
_chemical_formula_structural   Si
_cell_volume   146.18445722
_cell_formula_units_Z   8
loop_
 _symmetry_equiv_pos_site_id
 _symmetry_equiv_pos_as_xyz
  1  'x, y, z'
  2  '-y+1/2, x+1/2, z+1/2'
  3  '-x, -y, z'
  4  'y+1/2, -x+1/2, z+1/2'
  5  'x+1/2, -y+1/2, -z+1/2'
  6  '-y, -x, -z'
  7  '-x+1/2, y+1/2, -z+1/2'
  8  'y, x, -z'
loop_
 _atom_site_type_symbol
 _atom_site_label
 _atom_site_symmetry_multiplicity
 _atom_site_fract_x
 _atom_site_fract_y
 _atom_site_fract_z
 _atom_site_occupancy
  Si  Si0  4  0.00000000  0.50000000  0.40946977  1
  Si  Si1  4  0.17001508  0.82998492  0.00000000  1
# generated using pymatgen
data_ID_3
_symmetry_space_group_name_H-M   Fmmm
_cell_length_a   5.11441023
_cell_length_b   6.12398273
_cell_length_c   12.65667156
_cell_angle_alpha   90.00000000
_cell_angle_beta   90.00000000
_cell_angle_gamma   90.00000000
_symmetry_Int_Tables_number   69
_chemical_formula_structural   Si
_cell_volume   396.41403990
_cell_formula_units_Z   32
loop_
 _symmetry_equiv_pos_site_id
 _symmetry_equiv_pos_as_xyz
  1  'x, y, z'
  2  '-x, -y, -z'
  3  '-x, -y, z'
  4  'x, y, -z'
  5  'x, -y, -z'
  6  '-x, y, z'
  7  '-x, y, -z'
  8  'x, -y, z'
  9  'x+1/2, y, z+1/2'
  10  '-x+1/2, -y, -z+1/2'
  11  '-x+1/2, -y, z+1/2'
  12  'x+1/2, y, -z+1/2'
  13  'x+1/2, -y, -z+1/2'
  14  '-x+1/2, y, z+1/2'
  15  '-x+1/2, y, -z+1/2'
  16  'x+1/2, -y, z+1/2'
  17  'x+1/2, y+1/2, z'
  18  '-x+1/2, -y+1/2, -z'
  19  '-x+1/2, -y+1/2, z'
  20  'x+1/2, y+1/2, -z'
  21  'x+1/2, -y+1/2, -z'
  22  '-x+1/2, y+1/2, z'
  23  '-x+1/2, y+1/2, -z'
  24  'x+1/2, -y+1/2, z'
  25  'x, y+1/2, z+1/2'
  26  '-x, -y+1/2, -z+1/2'
  27  '-x, -y+1/2, z+1/2'
  28  'x, y+1/2, -z+1/2'
  29  'x, -y+1/2, -z+1/2'
  30  '-x, y+1/2, z+1/2'
  31  '-x, y+1/2, -z+1/2'
  32  'x, -y+1/2, z+1/2'
loop_
 _atom_site_type_symbol
 _atom_site_label
 _atom_site_symmetry_multiplicity
 _atom_site_fract_x
 _atom_site_fract_y
 _atom_site_fract_z
 _atom_site_occupancy
  Si  Si0  16  0.24193559  0.11929596  0.50000000  1
  Si  Si1  8  0.00000000  0.00000000  0.14187715  1
  Si  Si2  4  0.00000000  0.00000000  0.00000000  1
  Si  Si3  4  0.00000000  0.00000000  0.50000000  1
# generated using pymatgen
data_ID_4
_symmetry_space_group_name_H-M   Pmmn
_cell_length_a   2.91992261
_cell_length_b   3.48519324
_cell_length_c   5.10839763
_cell_angle_alpha   90.00000000
_cell_angle_beta   90.00000000
_cell_angle_gamma   90.00000000
_symmetry_Int_Tables_number   59
_chemical_formula_structural   Si
_cell_volume   51.98558066
_cell_formula_units_Z   8
loop_
 _symmetry_equiv_pos_site_id
 _symmetry_equiv_pos_as_xyz
  1  'x, y, z'
  2  '-x, -y, z'
  3  'x+1/2, -y+1/2, -z'
  4  '-x+1/2, y+1/2, -z'
  5  '-x+1/2, -y+1/2, -z'
  6  'x+1/2, y+1/2, -z'
  7  '-x, y, z'
  8  'x, -y, z'
loop_
 _atom_site_type_symbol
 _atom_site_label
 _atom_site_symmetry_multiplicity
 _atom_site_fract_x
 _atom_site_fract_y
 _atom_site_fract_z
 _atom_site_occupancy
  Si  Si0  2  0.00000000  0.00000000  0.02795238  1
  Si  Si1  2  0.00000000  0.00000000  0.54395958  1
  Si  Si2  2  0.00000000  0.50000000  0.03008569  1
  Si  Si3  2  0.00000000  0.50000000  0.41541962  1
# generated using pymatgen
data_ID_5
_symmetry_space_group_name_H-M   Pm-3n
_cell_length_a   4.82473149
_cell_length_b   4.82473149
_cell_length_c   4.82473149
_cell_angle_alpha   90.00000000
_cell_angle_beta   90.00000000
_cell_angle_gamma   90.00000000
_symmetry_Int_Tables_number   223
_chemical_formula_structural   Si
_cell_volume   112.31026372
_cell_formula_units_Z   8
loop_
 _symmetry_equiv_pos_site_id
 _symmetry_equiv_pos_as_xyz
  1  'x, y, z'
  2  '-x, -y, -z'
  3  '-y+1/2, x+1/2, z+1/2'
  4  'y+1/2, -x+1/2, -z+1/2'
  5  '-x, -y, z'
  6  'x, y, -z'
  7  'y+1/2, -x+1/2, z+1/2'
  8  '-y+1/2, x+1/2, -z+1/2'
  9  'x, -y, -z'
  10  '-x, y, z'
  11  '-y+1/2, -x+1/2, -z+1/2'
  12  'y+1/2, x+1/2, z+1/2'
  13  '-x, y, -z'
  14  'x, -y, z'
  15  'y+1/2, x+1/2, -z+1/2'
  16  '-y+1/2, -x+1/2, z+1/2'
  17  'z, x, y'
  18  '-z, -x, -y'
  19  'z+1/2, -y+1/2, x+1/2'
  20  '-z+1/2, y+1/2, -x+1/2'
  21  'z, -x, -y'
  22  '-z, x, y'
  23  'z+1/2, y+1/2, -x+1/2'
  24  '-z+1/2, -y+1/2, x+1/2'
  25  '-z, x, -y'
  26  'z, -x, y'
  27  '-z+1/2, -y+1/2, -x+1/2'
  28  'z+1/2, y+1/2, x+1/2'
  29  '-z, -x, y'
  30  'z, x, -y'
  31  '-z+1/2, y+1/2, x+1/2'
  32  'z+1/2, -y+1/2, -x+1/2'
  33  'y, z, x'
  34  '-y, -z, -x'
  35  'x+1/2, z+1/2, -y+1/2'
  36  '-x+1/2, -z+1/2, y+1/2'
  37  '-y, z, -x'
  38  'y, -z, x'
  39  '-x+1/2, z+1/2, y+1/2'
  40  'x+1/2, -z+1/2, -y+1/2'
  41  '-y, -z, x'
  42  'y, z, -x'
  43  '-x+1/2, -z+1/2, -y+1/2'
  44  'x+1/2, z+1/2, y+1/2'
  45  'y, -z, -x'
  46  '-y, z, x'
  47  'x+1/2, -z+1/2, y+1/2'
  48  '-x+1/2, z+1/2, -y+1/2'
loop_
 _atom_site_type_symbol
 _atom_site_label
 _atom_site_symmetry_multiplicity
 _atom_site_fract_x
 _atom_site_fract_y
 _atom_site_fract_z
 _atom_site_occupancy
  Si  Si0  6  0.00000000  0.50000000  0.25000000  1
  Si  Si1  2  0.00000000  0.00000000  0.00000000  1
# generated using pymatgen
data_ID_6
_symmetry_space_group_name_H-M   P4/mbm
_cell_length_a   7.23425224
_cell_length_b   7.23425224
_cell_length_c   5.81227139
_cell_angle_alpha   90.00000000
_cell_angle_beta   90.00000000
_cell_angle_gamma   90.00000000
_symmetry_Int_Tables_number   127
_chemical_formula_structural   Si
_cell_volume   304.18176764
_cell_formula_units_Z   8
loop_
 _symmetry_equiv_pos_site_id
 _symmetry_equiv_pos_as_xyz
  1  'x, y, z'
  2  '-x, -y, -z'
  3  '-y, x, z'
  4  'y, -x, -z'
  5  '-x, -y, z'
  6  'x, y, -z'
  7  'y, -x, z'
  8  '-y, x, -z'
  9  'x+1/2, -y+1/2, -z'
  10  '-x+1/2, y+1/2, z'
  11  '-y+1/2, -x+1/2, -z'
  12  'y+1/2, x+1/2, z'
  13  '-x+1/2, y+1/2, -z'
  14  'x+1/2, -y+1/2, z'
  15  'y+1/2, x+1/2, -z'
  16  '-y+1/2, -x+1/2, z'
loop_
 _atom_site_type_symbol
 _atom_site_label
 _atom_site_symmetry_multiplicity
 _atom_site_fract_x
 _atom_site_fract_y
 _atom_site_fract_z
 _atom_site_occupancy
  Si  Si0  4  0.15597536  0.65597536  0.00000000  1
  Si  Si1  2  0.00000000  0.00000000  0.00000000  1
  Si  Si2  2  0.00000000  0.50000000  0.00000000  1
# generated using pymatgen
data_ID_7
_symmetry_space_group_name_H-M   Pm-3m
_cell_length_a   2.35789782
_cell_length_b   2.35789782
_cell_length_c   2.35789782
_cell_angle_alpha   90.00000000
_cell_angle_beta   90.00000000
_cell_angle_gamma   90.00000000
_symmetry_Int_Tables_number   221
_chemical_formula_structural   Si
_cell_volume   13.10916242
_cell_formula_units_Z   1
loop_
 _symmetry_equiv_pos_site_id
 _symmetry_equiv_pos_as_xyz
  1  'x, y, z'
  2  '-x, -y, -z'
  3  '-y, x, z'
  4  'y, -x, -z'
  5  '-x, -y, z'
  6  'x, y, -z'
  7  'y, -x, z'
  8  '-y, x, -z'
  9  'x, -y, -z'
  10  '-x, y, z'
  11  '-y, -x, -z'
  12  'y, x, z'
  13  '-x, y, -z'
  14  'x, -y, z'
  15  'y, x, -z'
  16  '-y, -x, z'
  17  'z, x, y'
  18  '-z, -x, -y'
  19  'z, -y, x'
  20  '-z, y, -x'
  21  'z, -x, -y'
  22  '-z, x, y'
  23  'z, y, -x'
  24  '-z, -y, x'
  25  '-z, x, -y'
  26  'z, -x, y'
  27  '-z, -y, -x'
  28  'z, y, x'
  29  '-z, -x, y'
  30  'z, x, -y'
  31  '-z, y, x'
  32  'z, -y, -x'
  33  'y, z, x'
  34  '-y, -z, -x'
  35  'x, z, -y'
  36  '-x, -z, y'
  37  '-y, z, -x'
  38  'y, -z, x'
  39  '-x, z, y'
  40  'x, -z, -y'
  41  '-y, -z, x'
  42  'y, z, -x'
  43  '-x, -z, -y'
  44  'x, z, y'
  45  'y, -z, -x'
  46  '-y, z, x'
  47  'x, -z, y'
  48  '-x, z, -y'
loop_
 _atom_site_type_symbol
 _atom_site_label
 _atom_site_symmetry_multiplicity
 _atom_site_fract_x
 _atom_site_fract_y
 _atom_site_fract_z
 _atom_site_occupancy
  Si  Si0  1  0.00000000  0.00000000  0.00000000  1
# generated using pymatgen
data_ID_8
_symmetry_space_group_name_H-M   I2_13
_cell_length_a   7.37262835
_cell_length_b   7.37262835
_cell_length_c   7.37262835
_cell_angle_alpha   90.00000000
_cell_angle_beta   90.00000000
_cell_angle_gamma   90.00000000
_symmetry_Int_Tables_number   199
_chemical_formula_structural   Si
_cell_volume   400.74399645
_cell_formula_units_Z   16
loop_
 _symmetry_equiv_pos_site_id
 _symmetry_equiv_pos_as_xyz
  1  'x, y, z'
  2  '-x, -y+1/2, z'
  3  'x, -y, -z+1/2'
  4  '-x, y+1/2, -z+1/2'
  5  'z, x, y'
  6  'z, -x, -y+1/2'
  7  '-z+1/2, x, -y'
  8  '-z+1/2, -x, y+1/2'
  9  'y, z, x'
  10  '-y+1/2, z, -x'
  11  '-y, -z+1/2, x'
  12  'y+1/2, -z+1/2, -x'
  13  'x+1/2, y+1/2, z+1/2'
  14  '-x+1/2, -y, z+1/2'
  15  'x+1/2, -y+1/2, -z'
  16  '-x+1/2, y, -z'
  17  'z+1/2, x+1/2, y+1/2'
  18  'z+1/2, -x+1/2, -y'
  19  '-z, x+1/2, -y+1/2'
  20  '-z, -x+1/2, y'
  21  'y+1/2, z+1/2, x+1/2'
  22  '-y, z+1/2, -x+1/2'
  23  '-y+1/2, -z, x+1/2'
  24  'y, -z, -x+1/2'
loop_
 _atom_site_type_symbol
 _atom_site_label
 _atom_site_symmetry_multiplicity
 _atom_site_fract_x
 _atom_site_fract_y
 _atom_site_fract_z
 _atom_site_occupancy
  Si  Si0  8  0.07516961  0.42483039  0.57516961  1
  Si  Si1  8  0.18640584  0.31359416  0.68640584  1
# generated using pymatgen
data_ID_9
_symmetry_space_group_name_H-M   Cm
_cell_length_a   7.80648321
_cell_length_b   4.12967058
_cell_length_c   9.10103627
_cell_angle_alpha   90.00000000
_cell_angle_beta   91.43449004
_cell_angle_gamma   90.00000000
_symmetry_Int_Tables_number   8
_chemical_formula_structural   Si
_cell_volume   293.30911305
_cell_formula_units_Z   16
loop_
 _symmetry_equiv_pos_site_id
 _symmetry_equiv_pos_as_xyz
  1  'x, y, z'
  2  'x, -y, z'
  3  'x+1/2, y+1/2, z'
  4  'x+1/2, -y+1/2, z'
loop_
 _atom_site_type_symbol
 _atom_site_label
 _atom_site_symmetry_multiplicity
 _atom_site_fract_x
 _atom_site_fract_y
 _atom_site_fract_z
 _atom_site_occupancy
  Si  Si0  4  0.12627945  0.17750329  0.70008479  1
  Si  Si1  4  0.16807318  0.28359272  0.42432228  1
  Si  Si2  2  0.09639699  0.50000000  0.58815890  1
  Si  Si3  2  0.19376119  0.00000000  0.61399975  1
  Si  Si4  2  0.20249461  0.00000000  0.06178098  1
  Si  Si5  2  0.31739658  0.50000000  0.68235019  1
# generated using pymatgen
data_ID_10
_symmetry_space_group_name_H-M   Pnna
_cell_length_a   4.67520905
_cell_length_b   4.25427831
_cell_length_c   4.93721287
_cell_angle_alpha   90.00000000
_cell_angle_beta   90.00000000
_cell_angle_gamma   90.00000000
_symmetry_Int_Tables_number   52
_chemical_formula_structural   Si
_cell_volume   98.19938895
_cell_formula_units_Z   8
loop_
 _symmetry_equiv_pos_site_id
 _symmetry_equiv_pos_as_xyz
  1  'x, y, z'
  2  '-x, -y, -z'
  3  '-x+1/2, -y, z'
  4  'x+1/2, y, -z'
  5  'x, -y+1/2, -z+1/2'
  6  '-x, y+1/2, z+1/2'
  7  '-x+1/2, y+1/2, -z+1/2'
  8  'x+1/2, -y+1/2, z+1/2'
loop_
 _atom_site_type_symbol
 _atom_site_label
 _atom_site_symmetry_multiplicity
 _atom_site_fract_x
 _atom_site_fract_y
 _atom_site_fract_z
 _atom_site_occupancy
  Si  Si0  8  0.04638389  0.55689740  0.85051306  1
# generated using pymatgen
data_ID_11
_symmetry_space_group_name_H-M   C222_1
_cell_length_a   6.99129697
_cell_length_b   7.53069346
_cell_length_c   8.62926930
_cell_angle_alpha   90.00000000
_cell_angle_beta   90.00000000
_cell_angle_gamma   90.00000000
_symmetry_Int_Tables_number   20
_chemical_formula_structural   Si
_cell_volume   454.32511212
_cell_formula_units_Z   16
loop_
 _symmetry_equiv_pos_site_id
 _symmetry_equiv_pos_as_xyz
  1  'x, y, z'
  2  '-x, -y, z+1/2'
  3  'x, -y, -z'
  4  '-x, y, -z+1/2'
  5  'x+1/2, y+1/2, z'
  6  '-x+1/2, -y+1/2, z+1/2'
  7  'x+1/2, -y+1/2, -z'
  8  '-x+1/2, y+1/2, -z+1/2'
loop_
 _atom_site_type_symbol
 _atom_site_label
 _atom_site_symmetry_multiplicity
 _atom_site_fract_x
 _atom_site_fract_y
 _atom_site_fract_z
 _atom_site_occupancy
  Si  Si0  8  0.02710602  0.00242808  0.92441938  1
  Si  Si1  4  0.00000000  0.28555063  0.25000000  1
  Si  Si2  4  0.06363635  0.50000000  0.00000000  1
# generated using pymatgen
data_ID_12
_symmetry_space_group_name_H-M   Aem2
_cell_length_a   10.14151669
_cell_length_b   6.59701662
_cell_length_c   4.55817880
_cell_angle_alpha   90.00000000
_cell_angle_beta   90.00000000
_cell_angle_gamma   90.00000000
_symmetry_Int_Tables_number   39
_chemical_formula_structural   Si
_cell_volume   304.95927389
_cell_formula_units_Z   16
loop_
 _symmetry_equiv_pos_site_id
 _symmetry_equiv_pos_as_xyz
  1  'x, y, z'
  2  '-x, -y, z'
  3  '-x, y+1/2, z'
  4  'x, -y+1/2, z'
  5  'x, y+1/2, z+1/2'
  6  '-x, -y+1/2, z+1/2'
  7  '-x, y, z+1/2'
  8  'x, -y, z+1/2'
loop_
 _atom_site_type_symbol
 _atom_site_label
 _atom_site_symmetry_multiplicity
 _atom_site_fract_x
 _atom_site_fract_y
 _atom_site_fract_z
 _atom_site_occupancy
  Si  Si0  4  0.00000000  0.00000000  0.35563792  1
  Si  Si1  4  0.20693720  0.25000000  0.04554954  1
  Si  Si2  4  0.29745940  0.25000000  0.41011256  1
  Si  Si3  4  0.50000000  0.00000000  0.43938000  1
# generated using pymatgen
data_ID_13
_symmetry_space_group_name_H-M   I-4m2
_cell_length_a   8.12230529
_cell_length_b   8.12230529
_cell_length_c   9.00236184
_cell_angle_alpha   90.00000000
_cell_angle_beta   90.00000000
_cell_angle_gamma   90.00000000
_symmetry_Int_Tables_number   119
_chemical_formula_structural   Si
_cell_volume   593.90240407
_cell_formula_units_Z   16
loop_
 _symmetry_equiv_pos_site_id
 _symmetry_equiv_pos_as_xyz
  1  'x, y, z'
  2  'y, -x, -z'
  3  '-x, -y, z'
  4  '-y, x, -z'
  5  '-x, y, z'
  6  '-y, -x, -z'
  7  'x, -y, z'
  8  'y, x, -z'
  9  'x+1/2, y+1/2, z+1/2'
  10  'y+1/2, -x+1/2, -z+1/2'
  11  '-x+1/2, -y+1/2, z+1/2'
  12  '-y+1/2, x+1/2, -z+1/2'
  13  '-x+1/2, y+1/2, z+1/2'
  14  '-y+1/2, -x+1/2, -z+1/2'
  15  'x+1/2, -y+1/2, z+1/2'
  16  'y+1/2, x+1/2, -z+1/2'
loop_
 _atom_site_type_symbol
 _atom_site_label
 _atom_site_symmetry_multiplicity
 _atom_site_fract_x
 _atom_site_fract_y
 _atom_site_fract_z
 _atom_site_occupancy
  Si  Si0  8  0.00000000  0.34478057  0.76472032  1
  Si  Si1  4  0.00000000  0.00000000  0.16147782  1
  Si  Si2  2  0.00000000  0.00000000  0.00000000  1
  Si  Si3  2  0.00000000  0.00000000  0.50000000  1
# generated using pymatgen
data_ID_14
_symmetry_space_group_name_H-M   Pnnm
_cell_length_a   4.58331765
_cell_length_b   4.88801433
_cell_length_c   3.05550822
_cell_angle_alpha   90.00000000
_cell_angle_beta   90.00000000
_cell_angle_gamma   90.00000000
_symmetry_Int_Tables_number   58
_chemical_formula_structural   Si
_cell_volume   68.45353543
_cell_formula_units_Z   8
loop_
 _symmetry_equiv_pos_site_id
 _symmetry_equiv_pos_as_xyz
  1  'x, y, z'
  2  '-x, -y, -z'
  3  '-x, -y, z'
  4  'x, y, -z'
  5  'x+1/2, -y+1/2, -z+1/2'
  6  '-x+1/2, y+1/2, z+1/2'
  7  '-x+1/2, y+1/2, -z+1/2'
  8  'x+1/2, -y+1/2, z+1/2'
loop_
 _atom_site_type_symbol
 _atom_site_label
 _atom_site_symmetry_multiplicity
 _atom_site_fract_x
 _atom_site_fract_y
 _atom_site_fract_z
 _atom_site_occupancy
  Si  Si0  4  0.04174086  0.38504247  0.50000000  1
  Si  Si1  2  0.00000000  0.00000000  0.00000000  1
  Si  Si2  2  0.00000000  0.00000000  0.50000000  1
# generated using pymatgen
data_ID_15
_symmetry_space_group_name_H-M   P42_12
_cell_length_a   2.99825410
_cell_length_b   2.99825410
_cell_length_c   6.43379379
_cell_angle_alpha   90.00000000
_cell_angle_beta   90.00000000
_cell_angle_gamma   90.00000000
_symmetry_Int_Tables_number   90
_chemical_formula_structural   Si
_cell_volume   57.83676700
_cell_formula_units_Z   8
loop_
 _symmetry_equiv_pos_site_id
 _symmetry_equiv_pos_as_xyz
  1  'x, y, z'
  2  '-y+1/2, x+1/2, z'
  3  '-x, -y, z'
  4  'y+1/2, -x+1/2, z'
  5  'x+1/2, -y+1/2, -z'
  6  '-y, -x, -z'
  7  '-x+1/2, y+1/2, -z'
  8  'y, x, -z'
loop_
 _atom_site_type_symbol
 _atom_site_label
 _atom_site_symmetry_multiplicity
 _atom_site_fract_x
 _atom_site_fract_y
 _atom_site_fract_z
 _atom_site_occupancy
  Si  Si0  8  0.19130063  0.29967182  0.18632622  1
# generated using pymatgen
data_ID_16
_symmetry_space_group_name_H-M   P-1
_cell_length_a   4.31913269
_cell_length_b   5.54419091
_cell_length_c   9.49264555
_cell_angle_alpha   73.06533051
_cell_angle_beta   77.02760431
_cell_angle_gamma   82.18433011
_symmetry_Int_Tables_number   2
_chemical_formula_structural   Si
_cell_volume   211.29663126
_cell_formula_units_Z   8
loop_
 _symmetry_equiv_pos_site_id
 _symmetry_equiv_pos_as_xyz
  1  'x, y, z'
  2  '-x, -y, -z'
loop_
 _atom_site_type_symbol
 _atom_site_label
 _atom_site_symmetry_multiplicity
 _atom_site_fract_x
 _atom_site_fract_y
 _atom_site_fract_z
 _atom_site_occupancy
  Si  Si0  2  0.03180333  0.01508859  0.37117517  1
  Si  Si1  2  0.25708713  0.15430775  0.90833378  1
  Si  Si2  2  0.28858592  0.83710682  0.58829080  1
  Si  Si3  1  0.00000000  0.00000000  0.00000000  1
  Si  Si4  1  0.50000000  0.00000000  0.50000000  1
# generated using pymatgen
data_ID_17
_symmetry_space_group_name_H-M   P4/mmm
_cell_length_a   4.73354218
_cell_length_b   4.73354218
_cell_length_c   1.18481808
_cell_angle_alpha   90.00000000
_cell_angle_beta   90.00000000
_cell_angle_gamma   90.00000000
_symmetry_Int_Tables_number   123
_chemical_formula_structural   Si
_cell_volume   26.54753351
_cell_formula_units_Z   1
loop_
 _symmetry_equiv_pos_site_id
 _symmetry_equiv_pos_as_xyz
  1  'x, y, z'
  2  '-x, -y, -z'
  3  '-y, x, z'
  4  'y, -x, -z'
  5  '-x, -y, z'
  6  'x, y, -z'
  7  'y, -x, z'
  8  '-y, x, -z'
  9  'x, -y, -z'
  10  '-x, y, z'
  11  '-y, -x, -z'
  12  'y, x, z'
  13  '-x, y, -z'
  14  'x, -y, z'
  15  'y, x, -z'
  16  '-y, -x, z'
loop_
 _atom_site_type_symbol
 _atom_site_label
 _atom_site_symmetry_multiplicity
 _atom_site_fract_x
 _atom_site_fract_y
 _atom_site_fract_z
 _atom_site_occupancy
  Si  Si0  1  0.00000000  0.00000000  0.00000000  1
# generated using pymatgen
data_ID_18
_symmetry_space_group_name_H-M   I4_122
_cell_length_a   9.95221239
_cell_length_b   9.95221239
_cell_length_c   3.31612369
_cell_angle_alpha   90.00000000
_cell_angle_beta   90.00000000
_cell_angle_gamma   90.00000000
_symmetry_Int_Tables_number   98
_chemical_formula_structural   Si
_cell_volume   328.45054940
_cell_formula_units_Z   16
loop_
 _symmetry_equiv_pos_site_id
 _symmetry_equiv_pos_as_xyz
  1  'x, y, z'
  2  '-y, x+1/2, z+1/4'
  3  '-x+1/2, -y+1/2, z+1/2'
  4  'y+1/2, -x, z+3/4'
  5  'x, -y+1/2, -z+1/4'
  6  '-y, -x, -z'
  7  '-x+1/2, y, -z+3/4'
  8  'y+1/2, x+1/2, -z+1/2'
  9  'x+1/2, y+1/2, z+1/2'
  10  '-y+1/2, x, z+3/4'
  11  '-x, -y, z'
  12  'y, -x+1/2, z+1/4'
  13  'x+1/2, -y, -z+3/4'
  14  '-y+1/2, -x+1/2, -z+1/2'
  15  '-x, y+1/2, -z+1/4'
  16  'y, x, -z'
loop_
 _atom_site_type_symbol
 _atom_site_label
 _atom_site_symmetry_multiplicity
 _atom_site_fract_x
 _atom_site_fract_y
 _atom_site_fract_z
 _atom_site_occupancy
  Si  Si0  8  0.17027066  0.17027066  0.00000000  1
  Si  Si1  4  0.00000000  0.00000000  0.00000000  1
  Si  Si2  4  0.00000000  0.00000000  0.50000000  1
# generated using pymatgen
data_ID_19
_symmetry_space_group_name_H-M   Pna2_1
_cell_length_a   4.45732604
_cell_length_b   5.54993266
_cell_length_c   8.17423658
_cell_angle_alpha   90.00000000
_cell_angle_beta   90.00000000
_cell_angle_gamma   90.00000000
_symmetry_Int_Tables_number   33
_chemical_formula_structural   Si
_cell_volume   202.21311474
_cell_formula_units_Z   8
loop_
 _symmetry_equiv_pos_site_id
 _symmetry_equiv_pos_as_xyz
  1  'x, y, z'
  2  '-x, -y, z+1/2'
  3  '-x+1/2, y+1/2, z+1/2'
  4  'x+1/2, -y+1/2, z'
loop_
 _atom_site_type_symbol
 _atom_site_label
 _atom_site_symmetry_multiplicity
 _atom_site_fract_x
 _atom_site_fract_y
 _atom_site_fract_z
 _atom_site_occupancy
  Si  Si0  4  0.00075184  0.66814778  0.53494038  1
  Si  Si1  4  0.09857551  0.21604226  0.22077615  1
# generated using pymatgen
data_ID_20
_symmetry_space_group_name_H-M   P1
_cell_length_a   4.25427831
_cell_length_b   4.67520905
_cell_length_c   4.93721287
_cell_angle_alpha   90.00000000
_cell_angle_beta   90.00000000
_cell_angle_gamma   90.00000000
_symmetry_Int_Tables_number   1
_chemical_formula_structural   Si
_cell_volume   98.19938895
_cell_formula_units_Z   8
loop_
 _symmetry_equiv_pos_site_id
 _symmetry_equiv_pos_as_xyz
  1  'x, y, z'
loop_
 _atom_site_type_symbol
 _atom_site_label
 _atom_site_symmetry_multiplicity
 _atom_site_fract_x
 _atom_site_fract_y
 _atom_site_fract_z
 _atom_site_occupancy
  Si  Si0  1  0.03368425  0.43472312  0.32080609  1
  Si  Si1  1  0.16912123  0.57016009  0.81640948  1
  Si  Si2  1  0.38985379  0.29089265  0.61386889  1
  Si  Si3  1  0.47359587  0.37463473  0.11386889  1
  Si  Si4  1  0.53368425  0.93472312  0.90693169  1
  Si  Si5  1  0.66912123  0.07016009  0.41132829  1
  Si  Si6  1  0.89017551  0.51086776  0.85731957  1
  Si  Si7  1  0.89017551  0.01086776  0.15629344  1
# generated using pymatgen
data_ID_21
_symmetry_space_group_name_H-M   P1
_cell_length_a   4.00928991
_cell_length_b   4.00928991
_cell_length_c   10.14151669
_cell_angle_alpha   90.00000000
_cell_angle_beta   90.00000000
_cell_angle_gamma   110.71528265
_symmetry_Int_Tables_number   1
_chemical_formula_structural   Si
_cell_volume   152.47963695
_cell_formula_units_Z   8
loop_
 _symmetry_equiv_pos_site_id
 _symmetry_equiv_pos_as_xyz
  1  'x, y, z'
loop_
 _atom_site_type_symbol
 _atom_site_label
 _atom_site_symmetry_multiplicity
 _atom_site_fract_x
 _atom_site_fract_y
 _atom_site_fract_z
 _atom_site_occupancy
  Si  Si0  1  0.05811311  0.93609911  0.97906942  1
  Si  Si1  1  0.30811311  0.93609911  0.47906942  1
  Si  Si2  1  0.49152627  0.21647211  0.56684029  1
  Si  Si3  1  0.55811311  0.93609911  0.97906942  1
  Si  Si4  1  0.57526835  0.30021419  0.06684029  1
  Si  Si5  1  0.79600092  0.02094675  0.86429970  1
  Si  Si6  1  0.80811311  0.68609911  0.47906942  1
  Si  Si7  1  0.93143789  0.15638373  0.35990309  1
# generated using pymatgen
data_ID_22
_symmetry_space_group_name_H-M   P1
_cell_length_a   4.45732604
_cell_length_b   5.54993266
_cell_length_c   8.17423658
_cell_angle_alpha   90.00000000
_cell_angle_beta   90.00000000
_cell_angle_gamma   90.00000000
_symmetry_Int_Tables_number   1
_chemical_formula_structural   Si
_cell_volume   202.21311474
_cell_formula_units_Z   8
loop_
 _symmetry_equiv_pos_site_id
 _symmetry_equiv_pos_as_xyz
  1  'x, y, z'
loop_
 _atom_site_type_symbol
 _atom_site_label
 _atom_site_symmetry_multiplicity
 _atom_site_fract_x
 _atom_site_fract_y
 _atom_site_fract_z
 _atom_site_occupancy
  Si  Si0  1  0.00587436  0.71038145  0.27741140  1
  Si  Si1  1  0.17614502  0.36984013  0.27741140  1
  Si  Si2  1  0.34641567  0.02929882  0.27741140  1
  Si  Si3  1  0.48152430  0.90222584  0.74480391  1
  Si  Si4  1  0.67614502  0.36984013  0.27741140  1
  Si  Si5  1  0.75587436  0.86984013  0.11795271  1
  Si  Si6  1  0.88219695  0.95012031  0.55896813  1
  Si  Si7  1  0.98152430  0.83431035  0.74480391  1
# generated using pymatgen
data_ID_23
_symmetry_space_group_name_H-M   P1
_cell_length_a   4.45732604
_cell_length_b   5.54993266
_cell_length_c   8.17423658
_cell_angle_alpha   90.00000000
_cell_angle_beta   90.00000000
_cell_angle_gamma   90.00000000
_symmetry_Int_Tables_number   1
_chemical_formula_structural   Si
_cell_volume   202.21311474
_cell_formula_units_Z   8
loop_
 _symmetry_equiv_pos_site_id
 _symmetry_equiv_pos_as_xyz
  1  'x, y, z'
loop_
 _atom_site_type_symbol
 _atom_site_label
 _atom_site_symmetry_multiplicity
 _atom_site_fract_x
 _atom_site_fract_y
 _atom_site_fract_z
 _atom_site_occupancy
  Si  Si0  1  0.04831457  0.00320787  0.61529328  1
  Si  Si1  1  0.30605994  0.98950899  0.32086832  1
  Si  Si2  1  0.35875343  0.18786793  0.79995334  1
  Si  Si3  1  0.35875343  0.31364673  0.61529328  1
  Si  Si4  1  0.70353400  0.58462543  0.54149141  1
  Si  Si5  1  0.70353400  0.92314762  0.88001359  1
  Si  Si6  1  0.80605994  0.82580455  0.32086832  1
  Si  Si7  1  0.90538729  0.94161452  0.50670409  1
# generated using pymatgen
data_ID_24
_symmetry_space_group_name_H-M   P1
_cell_length_a   4.71579565
_cell_length_b   4.71579565
_cell_length_c   4.71579565
_cell_angle_alpha   90.00000000
_cell_angle_beta   90.00000000
_cell_angle_gamma   90.00000000
_symmetry_Int_Tables_number   1
_chemical_formula_structural   Si
_cell_volume   104.87329938
_cell_formula_units_Z   8
loop_
 _symmetry_equiv_pos_site_id
 _symmetry_equiv_pos_as_xyz
  1  'x, y, z'
loop_
 _atom_site_type_symbol
 _atom_site_label
 _atom_site_symmetry_multiplicity
 _atom_site_fract_x
 _atom_site_fract_y
 _atom_site_fract_z
 _atom_site_occupancy
  Si  Si0  1  0.16931390  0.02918655  0.27376645  1
  Si  Si1  1  0.16931390  0.27918655  0.77376645  1
  Si  Si2  1  0.16931390  0.52918655  0.27376645  1
  Si  Si3  1  0.41931390  0.77918655  0.77376645  1
  Si  Si4  1  0.98985754  0.42008555  0.03541671  1
  Si  Si5  1  0.98985754  0.42008555  0.53541671  1
  Si  Si6  1  0.98985754  0.92008555  0.53541671  1
  Si  Si7  1  0.98985754  0.92008555  0.03541671  1
# generated using pymatgen
data_ID_25
_symmetry_space_group_name_H-M   P1
_cell_length_a   5.81227139
_cell_length_b   7.23425224
_cell_length_c   7.23425224
_cell_angle_alpha   90.00000000
_cell_angle_beta   90.00000000
_cell_angle_gamma   90.00000000
_symmetry_Int_Tables_number   1
_chemical_formula_structural   Si
_cell_volume   304.18176764
_cell_formula_units_Z   8
loop_
 _symmetry_equiv_pos_site_id
 _symmetry_equiv_pos_as_xyz
  1  'x, y, z'
loop_
 _atom_site_type_symbol
 _atom_site_label
 _atom_site_symmetry_multiplicity
 _atom_site_fract_x
 _atom_site_fract_y
 _atom_site_fract_z
 _atom_site_occupancy
  Si  Si0  1  0.21065977  0.27139226  0.38190034  1
  Si  Si1  1  0.46065977  0.27139226  0.88190034  1
  Si  Si2  1  0.50047746  0.63274639  0.34684559  1
  Si  Si3  1  0.50047746  0.78872174  0.19087023  1
  Si  Si4  1  0.50047746  0.78872174  0.69087023  1
  Si  Si5  1  0.50047746  0.94469710  0.03489487  1
  Si  Si6  1  0.71065977  0.27139226  0.38190034  1
  Si  Si7  1  0.96065977  0.52139226  0.88190034  1
# generated using pymatgen
data_ID_26
_symmetry_space_group_name_H-M   P1
_cell_length_a   4.71579565
_cell_length_b   4.71579565
_cell_length_c   4.71579565
_cell_angle_alpha   90.00000000
_cell_angle_beta   90.00000000
_cell_angle_gamma   90.00000000
_symmetry_Int_Tables_number   1
_chemical_formula_structural   Si
_cell_volume   104.87329938
_cell_formula_units_Z   8
loop_
 _symmetry_equiv_pos_site_id
 _symmetry_equiv_pos_as_xyz
  1  'x, y, z'
loop_
 _atom_site_type_symbol
 _atom_site_label
 _atom_site_symmetry_multiplicity
 _atom_site_fract_x
 _atom_site_fract_y
 _atom_site_fract_z
 _atom_site_occupancy
  Si  Si0  1  0.03678801  0.41960958  0.96661024  1
  Si  Si1  1  0.03678801  0.91960958  0.46661024  1
  Si  Si2  1  0.03678801  0.91960958  0.96661024  1
  Si  Si3  1  0.53678801  0.41960958  0.46661024  1
  Si  Si4  1  0.53678801  0.41960958  0.96661024  1
  Si  Si5  1  0.53678801  0.91960958  0.46661024  1
  Si  Si6  1  0.74370871  0.98457153  0.03471804  1
  Si  Si7  1  0.90367854  0.48457153  0.53471804  1
# generated using pymatgen
data_ID_27
_symmetry_space_group_name_H-M   P1
_cell_length_a   3.41921622
_cell_length_b   6.53863835
_cell_length_c   6.53863835
_cell_angle_alpha   90.00000000
_cell_angle_beta   90.00000000
_cell_angle_gamma   90.00000000
_symmetry_Int_Tables_number   1
_chemical_formula_structural   Si
_cell_volume   146.18445722
_cell_formula_units_Z   8
loop_
 _symmetry_equiv_pos_site_id
 _symmetry_equiv_pos_as_xyz
  1  'x, y, z'
loop_
 _atom_site_type_symbol
 _atom_site_label
 _atom_site_symmetry_multiplicity
 _atom_site_fract_x
 _atom_site_fract_y
 _atom_site_fract_z
 _atom_site_occupancy
  Si  Si0  1  0.11884021  0.65160797  0.98058366  1
  Si  Si1  1  0.11884021  0.65160797  0.48058366  1
  Si  Si2  1  0.30196768  0.36685273  0.07081917  1
  Si  Si3  1  0.39249792  0.03686782  0.24083425  1
  Si  Si4  1  0.61884021  0.65160797  0.73058366  1
  Si  Si5  1  0.61884021  0.90160797  0.23058366  1
  Si  Si6  1  0.80196768  0.36685273  0.07081917  1
  Si  Si7  1  0.89249792  0.19683765  0.74083425  1
# generated using pymatgen
data_ID_28
_symmetry_space_group_name_H-M   P1
_cell_length_a   2.35789782
_cell_length_b   4.71579565
_cell_length_c   4.71579565
_cell_angle_alpha   90.00000000
_cell_angle_beta   90.00000000
_cell_angle_gamma   90.00000000
_symmetry_Int_Tables_number   1
_chemical_formula_structural   Si
_cell_volume   52.43664969
_cell_formula_units_Z   4
loop_
 _symmetry_equiv_pos_site_id
 _symmetry_equiv_pos_as_xyz
  1  'x, y, z'
loop_
 _atom_site_type_symbol
 _atom_site_label
 _atom_site_symmetry_multiplicity
 _atom_site_fract_x
 _atom_site_fract_y
 _atom_site_fract_z
 _atom_site_occupancy
  Si  Si0  1  0.28552647  0.03584684  0.10217974  1
  Si  Si1  1  0.28552647  0.03584684  0.60217974  1
  Si  Si2  1  0.28552647  0.53584684  0.60217974  1
  Si  Si3  1  0.32169215  0.73472241  0.99955903  1
# generated using pymatgen
data_ID_29
_symmetry_space_group_name_H-M   P1
_cell_length_a   4.45732604
_cell_length_b   5.54993266
_cell_length_c   8.17423658
_cell_angle_alpha   90.00000000
_cell_angle_beta   90.00000000
_cell_angle_gamma   90.00000000
_symmetry_Int_Tables_number   1
_chemical_formula_structural   Si
_cell_volume   202.21311474
_cell_formula_units_Z   8
loop_
 _symmetry_equiv_pos_site_id
 _symmetry_equiv_pos_as_xyz
  1  'x, y, z'
loop_
 _atom_site_type_symbol
 _atom_site_label
 _atom_site_symmetry_multiplicity
 _atom_site_fract_x
 _atom_site_fract_y
 _atom_site_fract_z
 _atom_site_occupancy
  Si  Si0  1  0.17245084  0.84178904  0.75306160  1
  Si  Si1  1  0.27027451  0.38968352  0.06722583  1
  Si  Si2  1  0.27177819  0.72597907  0.56722583  1
  Si  Si3  1  0.43653092  0.18268556  0.97993189  1
  Si  Si4  1  0.60654601  0.51267048  0.57046212  1
  Si  Si5  1  0.76651584  0.01267048  0.07046212  1
  Si  Si6  1  0.93653092  0.68268556  0.16099236  1
  Si  Si7  1  0.93653092  0.68268556  0.66099236  1
# generated using pymatgen
data_ID_30
_symmetry_space_group_name_H-M   P1
_cell_length_a   3.84724958
_cell_length_b   5.65373025
_cell_length_c   9.44459307
_cell_angle_alpha   84.52407584
_cell_angle_beta   88.66634607
_cell_angle_gamma   81.44926793
_symmetry_Int_Tables_number   1
_chemical_formula_structural   Si
_cell_volume   202.21311474
_cell_formula_units_Z   8
loop_
 _symmetry_equiv_pos_site_id
 _symmetry_equiv_pos_as_xyz
  1  'x, y, z'
loop_
 _atom_site_type_symbol
 _atom_site_label
 _atom_site_symmetry_multiplicity
 _atom_site_fract_x
 _atom_site_fract_y
 _atom_site_fract_z
 _atom_site_occupancy
  Si  Si0  1  0.37837070  0.18064834  0.09857551  1
  Si  Si1  1  0.37837070  0.37779936  0.40142449  1
  Si  Si2  1  0.44628619  0.68064834  0.59857551  1
  Si  Si3  1  0.44628619  0.87779936  0.90142449  1
  Si  Si4  1  0.77296891  0.96581146  0.49924816  1
  Si  Si5  1  0.77296891  0.96430779  0.00075184  1
  Si  Si6  1  0.93667335  0.46581146  0.99924816  1
  Si  Si7  1  0.93667335  0.46430779  0.50075184  1
# generated using pymatgen
data_ID_31
_symmetry_space_group_name_H-M   P1
_cell_length_a   2.80748414
_cell_length_b   6.13601418
_cell_length_c   9.86727490
_cell_angle_alpha   102.88348609
_cell_angle_beta   93.01397404
_cell_angle_gamma   96.17628244
_symmetry_Int_Tables_number   1
_chemical_formula_structural   Si
_cell_volume   164.22527470
_cell_formula_units_Z   8
loop_
 _symmetry_equiv_pos_site_id
 _symmetry_equiv_pos_as_xyz
  1  'x, y, z'
loop_
 _atom_site_type_symbol
 _atom_site_label
 _atom_site_symmetry_multiplicity
 _atom_site_fract_x
 _atom_site_fract_y
 _atom_site_fract_z
 _atom_site_occupancy
  Si  Si0  1  0.00000000  0.00000000  0.00000000  1
  Si  Si1  1  0.17027066  -0.00000000  0.65945868  1
  Si  Si2  1  0.25000000  0.50000000  -0.00000000  1
  Si  Si3  1  0.50000000  0.00000000  -0.00000000  1
  Si  Si4  1  0.57972934  0.84054132  0.34054132  1
  Si  Si5  1  0.75000000  0.50000000  -0.00000000  1
  Si  Si6  1  0.82972934  -0.00000000  0.34054132  1
  Si  Si7  1  0.92027066  0.15945868  0.65945868  1
# generated using pymatgen
data_ID_32
_symmetry_space_group_name_H-M   P1
_cell_length_a   2.81467880
_cell_length_b   6.24950684
_cell_length_c   9.40726521
_cell_angle_alpha   86.33499708
_cell_angle_beta   85.73984320
_cell_angle_gamma   85.47749043
_symmetry_Int_Tables_number   1
_chemical_formula_structural   Si
_cell_volume   164.22527470
_cell_formula_units_Z   8
loop_
 _symmetry_equiv_pos_site_id
 _symmetry_equiv_pos_as_xyz
  1  'x, y, z'
loop_
 _atom_site_type_symbol
 _atom_site_label
 _atom_site_symmetry_multiplicity
 _atom_site_fract_x
 _atom_site_fract_y
 _atom_site_fract_z
 _atom_site_occupancy
  Si  Si0  1  0.00000000  0.00000000  0.00000000  1
  Si  Si1  1  0.07972934  0.50000000  0.15945868  1
  Si  Si2  1  0.17027066  0.65945868  -0.00000000  1
  Si  Si3  1  0.25000000  0.50000000  0.50000000  1
  Si  Si4  1  0.42027066  0.50000000  0.84054132  1
  Si  Si5  1  0.50000000  0.00000000  -0.00000000  1
  Si  Si6  1  0.75000000  0.50000000  0.50000000  1
  Si  Si7  1  0.82972934  0.34054132  -0.00000000  1
# generated using pymatgen
data_ID_33
_symmetry_space_group_name_H-M   P1
_cell_length_a   2.52495093
_cell_length_b   7.01499997
_cell_length_c   9.94656255
_cell_angle_alpha   70.50594369
_cell_angle_beta   88.33890929
_cell_angle_gamma   81.52012694
_symmetry_Int_Tables_number   1
_chemical_formula_structural   Si
_cell_volume   164.22527470
_cell_formula_units_Z   8
loop_
 _symmetry_equiv_pos_site_id
 _symmetry_equiv_pos_as_xyz
  1  'x, y, z'
loop_
 _atom_site_type_symbol
 _atom_site_label
 _atom_site_symmetry_multiplicity
 _atom_site_fract_x
 _atom_site_fract_y
 _atom_site_fract_z
 _atom_site_occupancy
  Si  Si0  1  0.00000000  0.00000000  0.00000000  1
  Si  Si1  1  0.05810540  0.15945868  0.50000000  1
  Si  Si2  1  0.25000000  0.50000000  0.50000000  1
  Si  Si3  1  0.44189460  0.84054132  0.50000000  1
  Si  Si4  1  0.48918803  -0.00000000  0.65945868  1
  Si  Si5  1  0.50000000  -0.00000000  -0.00000000  1
  Si  Si6  1  0.51081197  -0.00000000  0.34054132  1
  Si  Si7  1  0.75000000  0.50000000  0.50000000  1
# generated using pymatgen
data_ID_34
_symmetry_space_group_name_H-M   P1
_cell_length_a   4.07794456
_cell_length_b   5.72241424
_cell_length_c   6.30295452
_cell_angle_alpha   93.42708239
_cell_angle_beta   93.87243009
_cell_angle_gamma   93.42743905
_symmetry_Int_Tables_number   1
_chemical_formula_structural   Si
_cell_volume   146.18445722
_cell_formula_units_Z   8
loop_
 _symmetry_equiv_pos_site_id
 _symmetry_equiv_pos_as_xyz
  1  'x, y, z'
loop_
 _atom_site_type_symbol
 _atom_site_label
 _atom_site_symmetry_multiplicity
 _atom_site_fract_x
 _atom_site_fract_y
 _atom_site_fract_z
 _atom_site_occupancy
  Si  Si0  1  -0.00000000  0.40946977  0.50000000  1
  Si  Si1  1  0.00000000  0.90946977  0.50000000  1
  Si  Si2  1  0.01004525  0.82998492  0.32998492  1
  Si  Si3  1  0.17001508  0.82998492  0.82998492  1
  Si  Si4  1  0.50000000  0.09053023  -0.00000000  1
  Si  Si5  1  0.50000000  0.59053023  -0.00000000  1
  Si  Si6  1  0.82998492  0.17001508  0.17001508  1
  Si  Si7  1  0.98995475  0.17001508  0.67001508  1
# generated using pymatgen
data_ID_35
_symmetry_space_group_name_H-M   P4/n
_cell_length_a   5.55209834
_cell_length_b   5.55209834
_cell_length_c   3.10355294
_cell_angle_alpha   90.00000000
_cell_angle_beta   90.00000000
_cell_angle_gamma   90.00000000
_symmetry_Int_Tables_number   85
_chemical_formula_structural   Si
_cell_volume   95.66948950
_cell_formula_units_Z   8
loop_
 _symmetry_equiv_pos_site_id
 _symmetry_equiv_pos_as_xyz
  1  'x, y, z'
  2  '-y+1/2, x+1/2, z'
  3  '-x, -y, z'
  4  'y+1/2, -x+1/2, z'
  5  '-x+1/2, -y+1/2, -z'
  6  'y, -x, -z'
  7  'x+1/2, y+1/2, -z'
  8  '-y, x, -z'
loop_
 _atom_site_type_symbol
 _atom_site_label
 _atom_site_symmetry_multiplicity
 _atom_site_fract_x
 _atom_site_fract_y
 _atom_site_fract_z
 _atom_site_occupancy
  Si  Si0  8  0.06629355  0.12492357  0.57928001  1
# generated using pymatgen
data_ID_36
_symmetry_space_group_name_H-M   P2/c
_cell_length_a   7.29144602
_cell_length_b   4.87502408
_cell_length_c   4.92320587
_cell_angle_alpha   90.00000000
_cell_angle_beta   104.96910164
_cell_angle_gamma   90.00000000
_symmetry_Int_Tables_number   13
_chemical_formula_structural   Si
_cell_volume   169.06156803
_cell_formula_units_Z   8
loop_
 _symmetry_equiv_pos_site_id
 _symmetry_equiv_pos_as_xyz
  1  'x, y, z'
  2  '-x, -y, -z'
  3  '-x, y, -z+1/2'
  4  'x, -y, z+1/2'
loop_
 _atom_site_type_symbol
 _atom_site_label
 _atom_site_symmetry_multiplicity
 _atom_site_fract_x
 _atom_site_fract_y
 _atom_site_fract_z
 _atom_site_occupancy
  Si  Si0  4  0.16702339  0.44141662  0.37396360  1
  Si  Si1  2  0.50000000  0.20562645  0.75000000  1
  Si  Si2  2  0.50000000  0.50000000  0.00000000  1
# generated using pymatgen
data_ID_37
_symmetry_space_group_name_H-M   P3m1
_cell_length_a   7.40050543
_cell_length_b   7.40050543
_cell_length_c   4.34753302
_cell_angle_alpha   90.00000000
_cell_angle_beta   90.00000000
_cell_angle_gamma   120.00000000
_symmetry_Int_Tables_number   156
_chemical_formula_structural   Si
_cell_volume   206.20361978
_cell_formula_units_Z   8
loop_
 _symmetry_equiv_pos_site_id
 _symmetry_equiv_pos_as_xyz
  1  'x, y, z'
  2  '-y, x-y, z'
  3  '-x+y, -x, z'
  4  '-y, -x, z'
  5  '-x+y, y, z'
  6  'x, x-y, z'
loop_
 _atom_site_type_symbol
 _atom_site_label
 _atom_site_symmetry_multiplicity
 _atom_site_fract_x
 _atom_site_fract_y
 _atom_site_fract_z
 _atom_site_occupancy
  Si  Si0  3  0.13689174  0.27378347  0.81923679  1
  Si  Si1  3  0.22860368  0.45720735  0.30286287  1
  Si  Si2  1  0.33333333  0.66666667  0.55308465  1
  Si  Si3  1  0.66666667  0.33333333  0.93313715  1
# generated using pymatgen
data_ID_38
_symmetry_space_group_name_H-M   Cmmm
_cell_length_a   5.95684048
_cell_length_b   11.26667602
_cell_length_c   6.24243995
_cell_angle_alpha   90.00000000
_cell_angle_beta   90.00000000
_cell_angle_gamma   90.00000000
_symmetry_Int_Tables_number   65
_chemical_formula_structural   Si
_cell_volume   418.95381556
_cell_formula_units_Z   16
loop_
 _symmetry_equiv_pos_site_id
 _symmetry_equiv_pos_as_xyz
  1  'x, y, z'
  2  '-x, -y, -z'
  3  '-x, -y, z'
  4  'x, y, -z'
  5  'x, -y, -z'
  6  '-x, y, z'
  7  '-x, y, -z'
  8  'x, -y, z'
  9  'x+1/2, y+1/2, z'
  10  '-x+1/2, -y+1/2, -z'
  11  '-x+1/2, -y+1/2, z'
  12  'x+1/2, y+1/2, -z'
  13  'x+1/2, -y+1/2, -z'
  14  '-x+1/2, y+1/2, z'
  15  '-x+1/2, y+1/2, -z'
  16  'x+1/2, -y+1/2, z'
loop_
 _atom_site_type_symbol
 _atom_site_label
 _atom_site_symmetry_multiplicity
 _atom_site_fract_x
 _atom_site_fract_y
 _atom_site_fract_z
 _atom_site_occupancy
  Si  Si0  8  0.00000000  0.29980855  0.15509283  1
  Si  Si1  4  0.00000000  0.00000000  0.34677885  1
  Si  Si2  4  0.00000000  0.19834898  0.50000000  1
# generated using pymatgen
data_ID_39
_symmetry_space_group_name_H-M   Pcca
_cell_length_a   8.94037652
_cell_length_b   3.27513174
_cell_length_c   5.46306583
_cell_angle_alpha   90.00000000
_cell_angle_beta   90.00000000
_cell_angle_gamma   90.00000000
_symmetry_Int_Tables_number   54
_chemical_formula_structural   Si
_cell_volume   159.96354405
_cell_formula_units_Z   8
loop_
 _symmetry_equiv_pos_site_id
 _symmetry_equiv_pos_as_xyz
  1  'x, y, z'
  2  '-x, -y, -z'
  3  '-x+1/2, -y, z'
  4  'x+1/2, y, -z'
  5  'x+1/2, -y, -z+1/2'
  6  '-x+1/2, y, z+1/2'
  7  '-x, y, -z+1/2'
  8  'x, -y, z+1/2'
loop_
 _atom_site_type_symbol
 _atom_site_label
 _atom_site_symmetry_multiplicity
 _atom_site_fract_x
 _atom_site_fract_y
 _atom_site_fract_z
 _atom_site_occupancy
  Si  Si0  8  0.00034970  0.47531103  0.89368575  1
