# generated using pymatgen
data_ID_0
_symmetry_space_group_name_H-M   Pna2_1
_cell_length_a   7.58336941
_cell_length_b   6.51753106
_cell_length_c   4.66940735
_cell_angle_alpha   90.00000000
_cell_angle_beta   90.00000000
_cell_angle_gamma   90.00000000
_symmetry_Int_Tables_number   33
_chemical_formula_structural   CuAu
_cell_volume   230.78473769
_cell_formula_units_Z   8
loop_
 _symmetry_equiv_pos_site_id
 _symmetry_equiv_pos_as_xyz
  1  'x, y, z'
  2  '-x, -y, z+1/2'
  3  '-x+1/2, y+1/2, z+1/2'
  4  'x+1/2, -y+1/2, z'
loop_
 _atom_site_type_symbol
 _atom_site_label
 _atom_site_symmetry_multiplicity
 _atom_site_fract_x
 _atom_site_fract_y
 _atom_site_fract_z
 _atom_site_occupancy
  Cu  Cu0  4  0.05057077  0.23121984  0.83707022  1
  Cu  Cu1  4  0.22227585  0.66279629  0.69157354  1
  Au  Au2  4  0.23579684  0.91849012  0.10545343  1
  Au  Au3  4  0.24157716  0.92303724  0.72070054  1
# generated using pymatgen
data_ID_1
_symmetry_space_group_name_H-M   P4_2
_cell_length_a   7.63532882
_cell_length_b   7.63532882
_cell_length_c   3.70069483
_cell_angle_alpha   90.00000000
_cell_angle_beta   90.00000000
_cell_angle_gamma   90.00000000
_symmetry_Int_Tables_number   77
_chemical_formula_structural   CuAu
_cell_volume   215.74401809
_cell_formula_units_Z   8
loop_
 _symmetry_equiv_pos_site_id
 _symmetry_equiv_pos_as_xyz
  1  'x, y, z'
  2  '-y, x, z+1/2'
  3  '-x, -y, z'
  4  'y, -x, z+1/2'
loop_
 _atom_site_type_symbol
 _atom_site_label
 _atom_site_symmetry_multiplicity
 _atom_site_fract_x
 _atom_site_fract_y
 _atom_site_fract_z
 _atom_site_occupancy
  Cu  Cu0  4  0.05561372  0.83330126  0.00449329  1
  Cu  Cu1  2  0.00000000  0.00000000  0.02991711  1
  Cu  Cu2  2  0.00000000  0.50000000  0.22559628  1
  Au  Au3  4  0.31041535  0.56228288  0.08068527  1
  Au  Au4  2  0.00000000  0.50000000  0.72854676  1
  Au  Au5  2  0.50000000  0.50000000  0.26790895  1
# generated using pymatgen
data_ID_2
_symmetry_space_group_name_H-M   P4_2/mmc
_cell_length_a   6.64075118
_cell_length_b   6.64075118
_cell_length_c   5.77835418
_cell_angle_alpha   90.00000000
_cell_angle_beta   90.00000000
_cell_angle_gamma   90.00000000
_symmetry_Int_Tables_number   131
_chemical_formula_structural   CuAu
_cell_volume   254.82297070
_cell_formula_units_Z   8
loop_
 _symmetry_equiv_pos_site_id
 _symmetry_equiv_pos_as_xyz
  1  'x, y, z'
  2  '-x, -y, -z'
  3  '-y, x, z+1/2'
  4  'y, -x, -z+1/2'
  5  '-x, -y, z'
  6  'x, y, -z'
  7  'y, -x, z+1/2'
  8  '-y, x, -z+1/2'
  9  'x, -y, -z'
  10  '-x, y, z'
  11  '-y, -x, -z+1/2'
  12  'y, x, z+1/2'
  13  '-x, y, -z'
  14  'x, -y, z'
  15  'y, x, -z+1/2'
  16  '-y, -x, z+1/2'
loop_
 _atom_site_type_symbol
 _atom_site_label
 _atom_site_symmetry_multiplicity
 _atom_site_fract_x
 _atom_site_fract_y
 _atom_site_fract_z
 _atom_site_occupancy
  Cu  Cu0  4  0.00000000  0.24255908  0.50000000  1
  Cu  Cu1  2  0.00000000  0.00000000  0.00000000  1
  Cu  Cu2  2  0.50000000  0.50000000  0.00000000  1
  Au  Au3  4  0.00000000  0.50000000  0.30484660  1
  Au  Au4  2  0.00000000  0.00000000  0.25000000  1
  Au  Au5  2  0.50000000  0.50000000  0.25000000  1
# generated using pymatgen
data_ID_3
_symmetry_space_group_name_H-M   Pbcm
_cell_length_a   4.49108896
_cell_length_b   6.89378023
_cell_length_c   6.16396193
_cell_angle_alpha   90.00000000
_cell_angle_beta   90.00000000
_cell_angle_gamma   90.00000000
_symmetry_Int_Tables_number   57
_chemical_formula_structural   CuAu
_cell_volume   190.83983819
_cell_formula_units_Z   8
loop_
 _symmetry_equiv_pos_site_id
 _symmetry_equiv_pos_as_xyz
  1  'x, y, z'
  2  '-x, -y, -z'
  3  '-x, -y, z+1/2'
  4  'x, y, -z+1/2'
  5  'x, -y+1/2, -z'
  6  '-x, y+1/2, z'
  7  '-x, y+1/2, -z+1/2'
  8  'x, -y+1/2, z+1/2'
loop_
 _atom_site_type_symbol
 _atom_site_label
 _atom_site_symmetry_multiplicity
 _atom_site_fract_x
 _atom_site_fract_y
 _atom_site_fract_z
 _atom_site_occupancy
  Cu  Cu0  4  0.19508396  0.52947263  0.75000000  1
  Cu  Cu1  4  0.50000000  0.00000000  0.00000000  1
  Au  Au2  4  0.00000000  0.00000000  0.00000000  1
  Au  Au3  4  0.46500864  0.69494043  0.75000000  1
# generated using pymatgen
data_ID_4
_symmetry_space_group_name_H-M   P6/mmm
_cell_length_a   2.90282153
_cell_length_b   2.90282153
_cell_length_c   3.99581607
_cell_angle_alpha   90.00000000
_cell_angle_beta   90.00000000
_cell_angle_gamma   120.00000000
_symmetry_Int_Tables_number   191
_chemical_formula_structural   CuAu
_cell_volume   29.15927969
_cell_formula_units_Z   1
loop_
 _symmetry_equiv_pos_site_id
 _symmetry_equiv_pos_as_xyz
  1  'x, y, z'
  2  '-x, -y, -z'
  3  'x-y, x, z'
  4  '-x+y, -x, -z'
  5  '-y, x-y, z'
  6  'y, -x+y, -z'
  7  '-x, -y, z'
  8  'x, y, -z'
  9  '-x+y, -x, z'
  10  'x-y, x, -z'
  11  'y, -x+y, z'
  12  '-y, x-y, -z'
  13  '-y, -x, -z'
  14  'y, x, z'
  15  '-x, -x+y, -z'
  16  'x, x-y, z'
  17  '-x+y, y, -z'
  18  'x-y, -y, z'
  19  'y, x, -z'
  20  '-y, -x, z'
  21  'x, x-y, -z'
  22  '-x, -x+y, z'
  23  'x-y, -y, -z'
  24  '-x+y, y, z'
loop_
 _atom_site_type_symbol
 _atom_site_label
 _atom_site_symmetry_multiplicity
 _atom_site_fract_x
 _atom_site_fract_y
 _atom_site_fract_z
 _atom_site_occupancy
  Cu  Cu0  1  0.00000000  0.00000000  0.50000000  1
  Au  Au1  1  0.00000000  0.00000000  0.00000000  1
# generated using pymatgen
data_ID_5
_symmetry_space_group_name_H-M   P-42c
_cell_length_a   4.73546498
_cell_length_b   4.73546498
_cell_length_c   8.40270869
_cell_angle_alpha   90.00000000
_cell_angle_beta   90.00000000
_cell_angle_gamma   90.00000000
_symmetry_Int_Tables_number   112
_chemical_formula_structural   CuAu
_cell_volume   188.42762110
_cell_formula_units_Z   8
loop_
 _symmetry_equiv_pos_site_id
 _symmetry_equiv_pos_as_xyz
  1  'x, y, z'
  2  'y, -x, -z'
  3  '-x, -y, z'
  4  '-y, x, -z'
  5  'x, -y, -z+1/2'
  6  'y, x, z+1/2'
  7  '-x, y, -z+1/2'
  8  '-y, -x, z+1/2'
loop_
 _atom_site_type_symbol
 _atom_site_label
 _atom_site_symmetry_multiplicity
 _atom_site_fract_x
 _atom_site_fract_y
 _atom_site_fract_z
 _atom_site_occupancy
  Cu  Cu0  8  0.20330146  0.40068115  0.87789065  1
  Au  Au1  4  0.00000000  0.26824876  0.25000000  1
  Au  Au2  2  0.50000000  0.50000000  0.00000000  1
  Au  Au3  2  0.50000000  0.50000000  0.25000000  1
# generated using pymatgen
data_ID_6
_symmetry_space_group_name_H-M   Ima2
_cell_length_a   13.43569523
_cell_length_b   5.11815803
_cell_length_c   5.84550203
_cell_angle_alpha   90.00000000
_cell_angle_beta   90.00000000
_cell_angle_gamma   90.00000000
_symmetry_Int_Tables_number   46
_chemical_formula_structural   CuAu
_cell_volume   401.97185895
_cell_formula_units_Z   16
loop_
 _symmetry_equiv_pos_site_id
 _symmetry_equiv_pos_as_xyz
  1  'x, y, z'
  2  '-x, -y, z'
  3  '-x+1/2, y, z'
  4  'x+1/2, -y, z'
  5  'x+1/2, y+1/2, z+1/2'
  6  '-x+1/2, -y+1/2, z+1/2'
  7  '-x, y+1/2, z+1/2'
  8  'x, -y+1/2, z+1/2'
loop_
 _atom_site_type_symbol
 _atom_site_label
 _atom_site_symmetry_multiplicity
 _atom_site_fract_x
 _atom_site_fract_y
 _atom_site_fract_z
 _atom_site_occupancy
  Cu  Cu0  8  0.16835885  0.74143496  0.22452366  1
  Cu  Cu1  4  0.00000000  0.00000000  0.11163295  1
  Cu  Cu2  4  0.25000000  0.17550481  0.04509208  1
  Au  Au3  8  0.13724022  0.15183458  0.55341338  1
  Au  Au4  4  0.00000000  0.00000000  0.70942034  1
  Au  Au5  4  0.25000000  0.55589876  0.17733195  1
# generated using pymatgen
data_ID_7
_symmetry_space_group_name_H-M   Cmce
_cell_length_a   12.46524790
_cell_length_b   8.73581105
_cell_length_c   4.67958374
_cell_angle_alpha   90.00000000
_cell_angle_beta   90.00000000
_cell_angle_gamma   90.00000000
_symmetry_Int_Tables_number   64
_chemical_formula_structural   CuAu
_cell_volume   509.57882703
_cell_formula_units_Z   16
loop_
 _symmetry_equiv_pos_site_id
 _symmetry_equiv_pos_as_xyz
  1  'x, y, z'
  2  '-x, -y, -z'
  3  '-x+1/2, -y, z+1/2'
  4  'x+1/2, y, -z+1/2'
  5  'x, -y, -z'
  6  '-x, y, z'
  7  '-x+1/2, y, -z+1/2'
  8  'x+1/2, -y, z+1/2'
  9  'x+1/2, y+1/2, z'
  10  '-x+1/2, -y+1/2, -z'
  11  '-x, -y+1/2, z+1/2'
  12  'x, y+1/2, -z+1/2'
  13  'x+1/2, -y+1/2, -z'
  14  '-x+1/2, y+1/2, z'
  15  '-x, y+1/2, -z+1/2'
  16  'x, -y+1/2, z+1/2'
loop_
 _atom_site_type_symbol
 _atom_site_label
 _atom_site_symmetry_multiplicity
 _atom_site_fract_x
 _atom_site_fract_y
 _atom_site_fract_z
 _atom_site_occupancy
  Cu  Cu0  8  0.25000000  0.11727707  0.25000000  1
  Cu  Cu1  4  0.00000000  0.00000000  0.00000000  1
  Cu  Cu2  4  0.00000000  0.00000000  0.50000000  1
  Au  Au3  16  0.13851584  0.22365392  0.61760721  1
# generated using pymatgen
data_ID_8
_symmetry_space_group_name_H-M   P4_12_12
_cell_length_a   4.21630840
_cell_length_b   4.21630840
_cell_length_c   10.76129303
_cell_angle_alpha   90.00000000
_cell_angle_beta   90.00000000
_cell_angle_gamma   90.00000000
_symmetry_Int_Tables_number   92
_chemical_formula_structural   CuAu
_cell_volume   191.30626676
_cell_formula_units_Z   8
loop_
 _symmetry_equiv_pos_site_id
 _symmetry_equiv_pos_as_xyz
  1  'x, y, z'
  2  '-y+1/2, x+1/2, z+1/4'
  3  '-x, -y, z+1/2'
  4  'y+1/2, -x+1/2, z+3/4'
  5  'x+1/2, -y+1/2, -z+3/4'
  6  '-y, -x, -z+1/2'
  7  '-x+1/2, y+1/2, -z+1/4'
  8  'y, x, -z'
loop_
 _atom_site_type_symbol
 _atom_site_label
 _atom_site_symmetry_multiplicity
 _atom_site_fract_x
 _atom_site_fract_y
 _atom_site_fract_z
 _atom_site_occupancy
  Cu  Cu0  8  0.16304965  0.69671241  0.11769650  1
  Au  Au1  8  0.16213187  0.80187498  0.95682310  1
# generated using pymatgen
data_ID_9
_symmetry_space_group_name_H-M   P2_1/m
_cell_length_a   4.74828362
_cell_length_b   5.06834239
_cell_length_c   8.43028878
_cell_angle_alpha   90.00000000
_cell_angle_beta   99.17773902
_cell_angle_gamma   90.00000000
_symmetry_Int_Tables_number   11
_chemical_formula_structural   CuAu
_cell_volume   200.28547406
_cell_formula_units_Z   8
loop_
 _symmetry_equiv_pos_site_id
 _symmetry_equiv_pos_as_xyz
  1  'x, y, z'
  2  '-x, -y, -z'
  3  '-x, y+1/2, -z'
  4  'x, -y+1/2, z'
loop_
 _atom_site_type_symbol
 _atom_site_label
 _atom_site_symmetry_multiplicity
 _atom_site_fract_x
 _atom_site_fract_y
 _atom_site_fract_z
 _atom_site_occupancy
  Cu  Cu0  2  0.00000000  0.00000000  0.00000000  1
  Cu  Cu1  2  0.00000000  0.00000000  0.50000000  1
  Cu  Cu2  2  0.36197549  0.25000000  0.74614532  1
  Cu  Cu3  2  0.50000000  0.00000000  0.00000000  1
  Au  Au4  4  0.18817506  0.51077180  0.84152106  1
  Au  Au5  2  0.02625169  0.25000000  0.80816028  1
  Au  Au6  2  0.50000000  0.00000000  0.50000000  1
# generated using pymatgen
data_ID_10
_symmetry_space_group_name_H-M   P-6c2
_cell_length_a   4.48510812
_cell_length_b   4.48510812
_cell_length_c   11.96292910
_cell_angle_alpha   90.00000000
_cell_angle_beta   90.00000000
_cell_angle_gamma   120.00000000
_symmetry_Int_Tables_number   188
_chemical_formula_structural   CuAu
_cell_volume   208.40781210
_cell_formula_units_Z   8
loop_
 _symmetry_equiv_pos_site_id
 _symmetry_equiv_pos_as_xyz
  1  'x, y, z'
  2  '-x+y, -x, -z+1/2'
  3  '-y, x-y, z'
  4  'x, y, -z+1/2'
  5  '-x+y, -x, z'
  6  '-y, x-y, -z+1/2'
  7  '-y, -x, -z'
  8  'x, x-y, z+1/2'
  9  '-x+y, y, -z'
  10  '-y, -x, z+1/2'
  11  'x, x-y, -z'
  12  '-x+y, y, z+1/2'
loop_
 _atom_site_type_symbol
 _atom_site_label
 _atom_site_symmetry_multiplicity
 _atom_site_fract_x
 _atom_site_fract_y
 _atom_site_fract_z
 _atom_site_occupancy
  Cu  Cu0  6  0.05132126  0.39065955  0.75000000  1
  Cu  Cu1  2  0.33333333  0.66666667  0.00000000  1
  Au  Au2  4  0.66666667  0.33333333  0.14471613  1
  Au  Au3  2  0.00000000  0.00000000  0.25000000  1
  Au  Au4  2  0.66666667  0.33333333  0.00000000  1
# generated using pymatgen
data_ID_11
_symmetry_space_group_name_H-M   Fd-3m
_cell_length_a   10.10142896
_cell_length_b   10.10142896
_cell_length_c   10.10142896
_cell_angle_alpha   90.00000000
_cell_angle_beta   90.00000000
_cell_angle_gamma   90.00000000
_symmetry_Int_Tables_number   227
_chemical_formula_structural   CuAu
_cell_volume   1030.73836501
_cell_formula_units_Z   32
loop_
 _symmetry_equiv_pos_site_id
 _symmetry_equiv_pos_as_xyz
  1  'x, y, z'
  2  '-y+1/4, x+1/4, z+1/4'
  3  '-x, -y+1/2, z+1/2'
  4  'y+3/4, -x+1/4, z+3/4'
  5  'x, -y, -z'
  6  '-y+1/4, -x+3/4, -z+3/4'
  7  '-x, y+1/2, -z+1/2'
  8  'y+3/4, x+3/4, -z+1/4'
  9  'z, x, y'
  10  'z+1/4, -y+1/4, x+1/4'
  11  'z+1/2, -x, -y+1/2'
  12  'z+3/4, y+3/4, -x+1/4'
  13  '-z, x, -y'
  14  '-z+3/4, -y+1/4, -x+3/4'
  15  '-z+1/2, -x, y+1/2'
  16  '-z+1/4, y+3/4, x+3/4'
  17  'y, z, x'
  18  'x+1/4, z+1/4, -y+1/4'
  19  '-y+1/2, z+1/2, -x'
  20  '-x+1/4, z+3/4, y+3/4'
  21  '-y, -z, x'
  22  '-x+3/4, -z+3/4, -y+1/4'
  23  'y+1/2, -z+1/2, -x'
  24  'x+3/4, -z+1/4, y+3/4'
  25  '-x+1/4, -y+1/4, -z+1/4'
  26  'y, -x, -z'
  27  'x+1/4, y+3/4, -z+3/4'
  28  '-y+1/2, x, -z+1/2'
  29  '-x+1/4, y+1/4, z+1/4'
  30  'y, x+1/2, z+1/2'
  31  'x+1/4, -y+3/4, z+3/4'
  32  '-y+1/2, -x+1/2, z'
  33  '-z+1/4, -x+1/4, -y+1/4'
  34  '-z, y, -x'
  35  '-z+3/4, x+1/4, y+3/4'
  36  '-z+1/2, -y+1/2, x'
  37  'z+1/4, -x+1/4, y+1/4'
  38  'z+1/2, y, x+1/2'
  39  'z+3/4, x+1/4, -y+3/4'
  40  'z, -y+1/2, -x+1/2'
  41  '-y+1/4, -z+1/4, -x+1/4'
  42  '-x, -z, y'
  43  'y+3/4, -z+3/4, x+1/4'
  44  'x, -z+1/2, -y+1/2'
  45  'y+1/4, z+1/4, -x+1/4'
  46  'x+1/2, z+1/2, y'
  47  '-y+3/4, z+3/4, x+1/4'
  48  '-x+1/2, z, -y+1/2'
  49  'x+1/2, y+1/2, z'
  50  '-y+3/4, x+3/4, z+1/4'
  51  '-x+1/2, -y, z+1/2'
  52  'y+1/4, -x+3/4, z+3/4'
  53  'x+1/2, -y+1/2, -z'
  54  '-y+3/4, -x+1/4, -z+3/4'
  55  '-x+1/2, y, -z+1/2'
  56  'y+1/4, x+1/4, -z+1/4'
  57  'z+1/2, x+1/2, y'
  58  'z+3/4, -y+3/4, x+1/4'
  59  'z, -x+1/2, -y+1/2'
  60  'z+1/4, y+1/4, -x+1/4'
  61  '-z+1/2, x+1/2, -y'
  62  '-z+1/4, -y+3/4, -x+3/4'
  63  '-z, -x+1/2, y+1/2'
  64  '-z+3/4, y+1/4, x+3/4'
  65  'y+1/2, z+1/2, x'
  66  'x+3/4, z+3/4, -y+1/4'
  67  '-y, z, -x'
  68  '-x+3/4, z+1/4, y+3/4'
  69  '-y+1/2, -z+1/2, x'
  70  '-x+1/4, -z+1/4, -y+1/4'
  71  'y, -z, -x'
  72  'x+1/4, -z+3/4, y+3/4'
  73  '-x+3/4, -y+3/4, -z+1/4'
  74  'y+1/2, -x+1/2, -z'
  75  'x+3/4, y+1/4, -z+3/4'
  76  '-y, x+1/2, -z+1/2'
  77  '-x+3/4, y+3/4, z+1/4'
  78  'y+1/2, x, z+1/2'
  79  'x+3/4, -y+1/4, z+3/4'
  80  '-y, -x, z'
  81  '-z+3/4, -x+3/4, -y+1/4'
  82  '-z+1/2, y+1/2, -x'
  83  '-z+1/4, x+3/4, y+3/4'
  84  '-z, -y, x'
  85  'z+3/4, -x+3/4, y+1/4'
  86  'z, y+1/2, x+1/2'
  87  'z+1/4, x+3/4, -y+3/4'
  88  'z+1/2, -y, -x+1/2'
  89  '-y+3/4, -z+3/4, -x+1/4'
  90  '-x+1/2, -z+1/2, y'
  91  'y+1/4, -z+1/4, x+1/4'
  92  'x+1/2, -z, -y+1/2'
  93  'y+3/4, z+3/4, -x+1/4'
  94  'x, z, y'
  95  '-y+1/4, z+1/4, x+1/4'
  96  '-x, z+1/2, -y+1/2'
  97  'x+1/2, y, z+1/2'
  98  '-y+3/4, x+1/4, z+3/4'
  99  '-x+1/2, -y+1/2, z'
  100  'y+1/4, -x+1/4, z+1/4'
  101  'x+1/2, -y, -z+1/2'
  102  '-y+3/4, -x+3/4, -z+1/4'
  103  '-x+1/2, y+1/2, -z'
  104  'y+1/4, x+3/4, -z+3/4'
  105  'z+1/2, x, y+1/2'
  106  'z+3/4, -y+1/4, x+3/4'
  107  'z, -x, -y'
  108  'z+1/4, y+3/4, -x+3/4'
  109  '-z+1/2, x, -y+1/2'
  110  '-z+1/4, -y+1/4, -x+1/4'
  111  '-z, -x, y'
  112  '-z+3/4, y+3/4, x+1/4'
  113  'y+1/2, z, x+1/2'
  114  'x+3/4, z+1/4, -y+3/4'
  115  '-y, z+1/2, -x+1/2'
  116  '-x+3/4, z+3/4, y+1/4'
  117  '-y+1/2, -z, x+1/2'
  118  '-x+1/4, -z+3/4, -y+3/4'
  119  'y, -z+1/2, -x+1/2'
  120  'x+1/4, -z+1/4, y+1/4'
  121  '-x+3/4, -y+1/4, -z+3/4'
  122  'y+1/2, -x, -z+1/2'
  123  'x+3/4, y+3/4, -z+1/4'
  124  '-y, x, -z'
  125  '-x+3/4, y+1/4, z+3/4'
  126  'y+1/2, x+1/2, z'
  127  'x+3/4, -y+3/4, z+1/4'
  128  '-y, -x+1/2, z+1/2'
  129  '-z+3/4, -x+1/4, -y+3/4'
  130  '-z+1/2, y, -x+1/2'
  131  '-z+1/4, x+1/4, y+1/4'
  132  '-z, -y+1/2, x+1/2'
  133  'z+3/4, -x+1/4, y+3/4'
  134  'z, y, x'
  135  'z+1/4, x+1/4, -y+1/4'
  136  'z+1/2, -y+1/2, -x'
  137  '-y+3/4, -z+1/4, -x+3/4'
  138  '-x+1/2, -z, y+1/2'
  139  'y+1/4, -z+3/4, x+3/4'
  140  'x+1/2, -z+1/2, -y'
  141  'y+3/4, z+1/4, -x+3/4'
  142  'x, z+1/2, y+1/2'
  143  '-y+1/4, z+3/4, x+3/4'
  144  '-x, z, -y'
  145  'x, y+1/2, z+1/2'
  146  '-y+1/4, x+3/4, z+3/4'
  147  '-x, -y, z'
  148  'y+3/4, -x+3/4, z+1/4'
  149  'x, -y+1/2, -z+1/2'
  150  '-y+1/4, -x+1/4, -z+1/4'
  151  '-x, y, -z'
  152  'y+3/4, x+1/4, -z+3/4'
  153  'z, x+1/2, y+1/2'
  154  'z+1/4, -y+3/4, x+3/4'
  155  'z+1/2, -x+1/2, -y'
  156  'z+3/4, y+1/4, -x+3/4'
  157  '-z, x+1/2, -y+1/2'
  158  '-z+3/4, -y+3/4, -x+1/4'
  159  '-z+1/2, -x+1/2, y'
  160  '-z+1/4, y+1/4, x+1/4'
  161  'y, z+1/2, x+1/2'
  162  'x+1/4, z+3/4, -y+3/4'
  163  '-y+1/2, z, -x+1/2'
  164  '-x+1/4, z+1/4, y+1/4'
  165  '-y, -z+1/2, x+1/2'
  166  '-x+3/4, -z+1/4, -y+3/4'
  167  'y+1/2, -z, -x+1/2'
  168  'x+3/4, -z+3/4, y+1/4'
  169  '-x+1/4, -y+3/4, -z+3/4'
  170  'y, -x+1/2, -z+1/2'
  171  'x+1/4, y+1/4, -z+1/4'
  172  '-y+1/2, x+1/2, -z'
  173  '-x+1/4, y+3/4, z+3/4'
  174  'y, x, z'
  175  'x+1/4, -y+1/4, z+1/4'
  176  '-y+1/2, -x, z+1/2'
  177  '-z+1/4, -x+3/4, -y+3/4'
  178  '-z, y+1/2, -x+1/2'
  179  '-z+3/4, x+3/4, y+1/4'
  180  '-z+1/2, -y, x+1/2'
  181  'z+1/4, -x+3/4, y+3/4'
  182  'z+1/2, y+1/2, x'
  183  'z+3/4, x+3/4, -y+1/4'
  184  'z, -y, -x'
  185  '-y+1/4, -z+3/4, -x+3/4'
  186  '-x, -z+1/2, y+1/2'
  187  'y+3/4, -z+1/4, x+3/4'
  188  'x, -z, -y'
  189  'y+1/4, z+3/4, -x+3/4'
  190  'x+1/2, z, y+1/2'
  191  '-y+3/4, z+1/4, x+3/4'
  192  '-x+1/2, z+1/2, -y'
loop_
 _atom_site_type_symbol
 _atom_site_label
 _atom_site_symmetry_multiplicity
 _atom_site_fract_x
 _atom_site_fract_y
 _atom_site_fract_z
 _atom_site_occupancy
  Cu  Cu0  32  0.07998943  0.07998943  0.57998943  1
  Au  Au1  16  0.12500000  0.12500000  0.12500000  1
  Au  Au2  8  0.00000000  0.00000000  0.00000000  1
  Au  Au3  8  0.00000000  0.00000000  0.50000000  1
# generated using pymatgen
data_ID_12
_symmetry_space_group_name_H-M   R3
_cell_length_a   9.41103159
_cell_length_b   9.41103159
_cell_length_c   8.98919087
_cell_angle_alpha   90.00000000
_cell_angle_beta   90.00000000
_cell_angle_gamma   120.00000000
_symmetry_Int_Tables_number   146
_chemical_formula_structural   CuAu
_cell_volume   689.48638782
_cell_formula_units_Z   24
loop_
 _symmetry_equiv_pos_site_id
 _symmetry_equiv_pos_as_xyz
  1  'x, y, z'
  2  '-y, x-y, z'
  3  '-x+y, -x, z'
  4  'x+2/3, y+1/3, z+1/3'
  5  '-y+2/3, x-y+1/3, z+1/3'
  6  '-x+y+2/3, -x+1/3, z+1/3'
  7  'x+1/3, y+2/3, z+2/3'
  8  '-y+1/3, x-y+2/3, z+2/3'
  9  '-x+y+1/3, -x+2/3, z+2/3'
loop_
 _atom_site_type_symbol
 _atom_site_label
 _atom_site_symmetry_multiplicity
 _atom_site_fract_x
 _atom_site_fract_y
 _atom_site_fract_z
 _atom_site_occupancy
  Cu  Cu0  9  0.14304973  0.45302014  0.35136391  1
  Cu  Cu1  9  0.19124943  0.12974294  0.87985968  1
  Cu  Cu2  3  0.00000000  0.00000000  0.39082500  1
  Cu  Cu3  3  0.00000000  0.00000000  0.68427500  1
  Au  Au4  9  0.01494271  0.72578502  0.07632416  1
  Au  Au5  9  0.14912926  0.04718277  0.32345944  1
  Au  Au6  3  0.00000000  0.00000000  0.05679487  1
  Au  Au7  3  0.00000000  0.00000000  0.89936614  1
# generated using pymatgen
data_ID_13
_symmetry_space_group_name_H-M   P42_12
_cell_length_a   6.57297757
_cell_length_b   6.57297757
_cell_length_c   4.62508924
_cell_angle_alpha   90.00000000
_cell_angle_beta   90.00000000
_cell_angle_gamma   90.00000000
_symmetry_Int_Tables_number   90
_chemical_formula_structural   CuAu
_cell_volume   199.82251326
_cell_formula_units_Z   8
loop_
 _symmetry_equiv_pos_site_id
 _symmetry_equiv_pos_as_xyz
  1  'x, y, z'
  2  '-y+1/2, x+1/2, z'
  3  '-x, -y, z'
  4  'y+1/2, -x+1/2, z'
  5  'x+1/2, -y+1/2, -z'
  6  '-y, -x, -z'
  7  '-x+1/2, y+1/2, -z'
  8  'y, x, -z'
loop_
 _atom_site_type_symbol
 _atom_site_label
 _atom_site_symmetry_multiplicity
 _atom_site_fract_x
 _atom_site_fract_y
 _atom_site_fract_z
 _atom_site_occupancy
  Cu  Cu0  4  0.00000000  0.00000000  0.21171550  1
  Cu  Cu1  4  0.21084214  0.78915786  0.50000000  1
  Au  Au2  4  0.10588290  0.10588290  0.00000000  1
  Au  Au3  2  0.00000000  0.50000000  0.30531734  1
  Au  Au4  2  0.00000000  0.50000000  0.68514021  1
# generated using pymatgen
data_ID_14
_symmetry_space_group_name_H-M   F-43m
_cell_length_a   9.25268939
_cell_length_b   9.25268939
_cell_length_c   9.25268939
_cell_angle_alpha   90.00000000
_cell_angle_beta   90.00000000
_cell_angle_gamma   90.00000000
_symmetry_Int_Tables_number   216
_chemical_formula_structural   CuAu
_cell_volume   792.14365850
_cell_formula_units_Z   32
loop_
 _symmetry_equiv_pos_site_id
 _symmetry_equiv_pos_as_xyz
  1  'x, y, z'
  2  'y, -x, -z'
  3  '-x, -y, z'
  4  '-y, x, -z'
  5  'x, -y, -z'
  6  'y, x, z'
  7  '-x, y, -z'
  8  '-y, -x, z'
  9  'z, x, y'
  10  '-z, y, -x'
  11  'z, -x, -y'
  12  '-z, -y, x'
  13  '-z, x, -y'
  14  'z, y, x'
  15  '-z, -x, y'
  16  'z, -y, -x'
  17  'y, z, x'
  18  '-x, -z, y'
  19  '-y, z, -x'
  20  'x, -z, -y'
  21  '-y, -z, x'
  22  'x, z, y'
  23  'y, -z, -x'
  24  '-x, z, -y'
  25  'x+1/2, y+1/2, z'
  26  'y+1/2, -x+1/2, -z'
  27  '-x+1/2, -y+1/2, z'
  28  '-y+1/2, x+1/2, -z'
  29  'x+1/2, -y+1/2, -z'
  30  'y+1/2, x+1/2, z'
  31  '-x+1/2, y+1/2, -z'
  32  '-y+1/2, -x+1/2, z'
  33  'z+1/2, x+1/2, y'
  34  '-z+1/2, y+1/2, -x'
  35  'z+1/2, -x+1/2, -y'
  36  '-z+1/2, -y+1/2, x'
  37  '-z+1/2, x+1/2, -y'
  38  'z+1/2, y+1/2, x'
  39  '-z+1/2, -x+1/2, y'
  40  'z+1/2, -y+1/2, -x'
  41  'y+1/2, z+1/2, x'
  42  '-x+1/2, -z+1/2, y'
  43  '-y+1/2, z+1/2, -x'
  44  'x+1/2, -z+1/2, -y'
  45  '-y+1/2, -z+1/2, x'
  46  'x+1/2, z+1/2, y'
  47  'y+1/2, -z+1/2, -x'
  48  '-x+1/2, z+1/2, -y'
  49  'x+1/2, y, z+1/2'
  50  'y+1/2, -x, -z+1/2'
  51  '-x+1/2, -y, z+1/2'
  52  '-y+1/2, x, -z+1/2'
  53  'x+1/2, -y, -z+1/2'
  54  'y+1/2, x, z+1/2'
  55  '-x+1/2, y, -z+1/2'
  56  '-y+1/2, -x, z+1/2'
  57  'z+1/2, x, y+1/2'
  58  '-z+1/2, y, -x+1/2'
  59  'z+1/2, -x, -y+1/2'
  60  '-z+1/2, -y, x+1/2'
  61  '-z+1/2, x, -y+1/2'
  62  'z+1/2, y, x+1/2'
  63  '-z+1/2, -x, y+1/2'
  64  'z+1/2, -y, -x+1/2'
  65  'y+1/2, z, x+1/2'
  66  '-x+1/2, -z, y+1/2'
  67  '-y+1/2, z, -x+1/2'
  68  'x+1/2, -z, -y+1/2'
  69  '-y+1/2, -z, x+1/2'
  70  'x+1/2, z, y+1/2'
  71  'y+1/2, -z, -x+1/2'
  72  '-x+1/2, z, -y+1/2'
  73  'x, y+1/2, z+1/2'
  74  'y, -x+1/2, -z+1/2'
  75  '-x, -y+1/2, z+1/2'
  76  '-y, x+1/2, -z+1/2'
  77  'x, -y+1/2, -z+1/2'
  78  'y, x+1/2, z+1/2'
  79  '-x, y+1/2, -z+1/2'
  80  '-y, -x+1/2, z+1/2'
  81  'z, x+1/2, y+1/2'
  82  '-z, y+1/2, -x+1/2'
  83  'z, -x+1/2, -y+1/2'
  84  '-z, -y+1/2, x+1/2'
  85  '-z, x+1/2, -y+1/2'
  86  'z, y+1/2, x+1/2'
  87  '-z, -x+1/2, y+1/2'
  88  'z, -y+1/2, -x+1/2'
  89  'y, z+1/2, x+1/2'
  90  '-x, -z+1/2, y+1/2'
  91  '-y, z+1/2, -x+1/2'
  92  'x, -z+1/2, -y+1/2'
  93  '-y, -z+1/2, x+1/2'
  94  'x, z+1/2, y+1/2'
  95  'y, -z+1/2, -x+1/2'
  96  '-x, z+1/2, -y+1/2'
loop_
 _atom_site_type_symbol
 _atom_site_label
 _atom_site_symmetry_multiplicity
 _atom_site_fract_x
 _atom_site_fract_y
 _atom_site_fract_z
 _atom_site_occupancy
  Cu  Cu0  24  0.07573749  0.25000000  0.75000000  1
  Cu  Cu1  4  0.00000000  0.00000000  0.50000000  1
  Cu  Cu2  4  0.25000000  0.25000000  0.75000000  1
  Au  Au3  24  0.00000000  0.00000000  0.23971985  1
  Au  Au4  4  0.00000000  0.00000000  0.00000000  1
  Au  Au5  4  0.25000000  0.25000000  0.25000000  1
# generated using pymatgen
data_ID_15
_symmetry_space_group_name_H-M   P2_1
_cell_length_a   7.00295020
_cell_length_b   3.65660441
_cell_length_c   8.55623733
_cell_angle_alpha   90.00000000
_cell_angle_beta   104.30145872
_cell_angle_gamma   90.00000000
_symmetry_Int_Tables_number   4
_chemical_formula_structural   CuAu
_cell_volume   212.30970568
_cell_formula_units_Z   8
loop_
 _symmetry_equiv_pos_site_id
 _symmetry_equiv_pos_as_xyz
  1  'x, y, z'
  2  '-x, y+1/2, -z'
loop_
 _atom_site_type_symbol
 _atom_site_label
 _atom_site_symmetry_multiplicity
 _atom_site_fract_x
 _atom_site_fract_y
 _atom_site_fract_z
 _atom_site_occupancy
  Cu  Cu0  2  0.06072846  0.25617006  0.79383514  1
  Cu  Cu1  2  0.15410358  0.19787211  0.30488553  1
  Cu  Cu2  2  0.40382188  0.86885700  0.27374086  1
  Cu  Cu3  2  0.46903934  0.45434581  0.52916128  1
  Au  Au4  2  0.03121858  0.54294058  0.44146071  1
  Au  Au5  2  0.21944478  0.45522673  0.65582472  1
  Au  Au6  2  0.22617479  0.69745418  0.96925744  1
  Au  Au7  2  0.31063309  0.42030427  0.12366265  1
# generated using pymatgen
data_ID_16
_symmetry_space_group_name_H-M   I4_132
_cell_length_a   7.57579626
_cell_length_b   7.57579626
_cell_length_c   7.57579626
_cell_angle_alpha   90.00000000
_cell_angle_beta   90.00000000
_cell_angle_gamma   90.00000000
_symmetry_Int_Tables_number   214
_chemical_formula_structural   CuAu
_cell_volume   434.79531817
_cell_formula_units_Z   16
loop_
 _symmetry_equiv_pos_site_id
 _symmetry_equiv_pos_as_xyz
  1  'x, y, z'
  2  '-y+1/4, x+3/4, z+1/4'
  3  '-x+1/2, -y, z+1/2'
  4  'y+1/4, -x+1/4, z+3/4'
  5  'x, -y, -z+1/2'
  6  '-y+1/4, -x+1/4, -z+1/4'
  7  '-x+1/2, y, -z'
  8  'y+1/4, x+3/4, -z+3/4'
  9  'z, x, y'
  10  'z+1/4, -y+1/4, x+3/4'
  11  'z+1/2, -x+1/2, -y'
  12  'z+3/4, y+1/4, -x+1/4'
  13  '-z+1/2, x, -y'
  14  '-z+1/4, -y+1/4, -x+1/4'
  15  '-z, -x+1/2, y'
  16  '-z+3/4, y+1/4, x+3/4'
  17  'y, z, x'
  18  'x+3/4, z+1/4, -y+1/4'
  19  '-y, z+1/2, -x+1/2'
  20  '-x+1/4, z+3/4, y+1/4'
  21  '-y, -z+1/2, x'
  22  '-x+1/4, -z+1/4, -y+1/4'
  23  'y, -z, -x+1/2'
  24  'x+3/4, -z+3/4, y+1/4'
  25  'x+1/2, y+1/2, z+1/2'
  26  '-y+3/4, x+1/4, z+3/4'
  27  '-x, -y+1/2, z'
  28  'y+3/4, -x+3/4, z+1/4'
  29  'x+1/2, -y+1/2, -z'
  30  '-y+3/4, -x+3/4, -z+3/4'
  31  '-x, y+1/2, -z+1/2'
  32  'y+3/4, x+1/4, -z+1/4'
  33  'z+1/2, x+1/2, y+1/2'
  34  'z+3/4, -y+3/4, x+1/4'
  35  'z, -x, -y+1/2'
  36  'z+1/4, y+3/4, -x+3/4'
  37  '-z, x+1/2, -y+1/2'
  38  '-z+3/4, -y+3/4, -x+3/4'
  39  '-z+1/2, -x, y+1/2'
  40  '-z+1/4, y+3/4, x+1/4'
  41  'y+1/2, z+1/2, x+1/2'
  42  'x+1/4, z+3/4, -y+3/4'
  43  '-y+1/2, z, -x'
  44  '-x+3/4, z+1/4, y+3/4'
  45  '-y+1/2, -z, x+1/2'
  46  '-x+3/4, -z+3/4, -y+3/4'
  47  'y+1/2, -z+1/2, -x'
  48  'x+1/4, -z+1/4, y+3/4'
loop_
 _atom_site_type_symbol
 _atom_site_label
 _atom_site_symmetry_multiplicity
 _atom_site_fract_x
 _atom_site_fract_y
 _atom_site_fract_z
 _atom_site_occupancy
  Cu  Cu0  8  0.12500000  0.12500000  0.12500000  1
  Cu  Cu1  8  0.12500000  0.37500000  0.62500000  1
  Au  Au2  16  0.00087995  0.00087995  0.00087995  1
# generated using pymatgen
data_ID_17
_symmetry_space_group_name_H-M   Pcc2
_cell_length_a   4.94935898
_cell_length_b   8.55464900
_cell_length_c   6.04010556
_cell_angle_alpha   90.00000000
_cell_angle_beta   90.00000000
_cell_angle_gamma   90.00000000
_symmetry_Int_Tables_number   27
_chemical_formula_structural   CuAu
_cell_volume   255.73824327
_cell_formula_units_Z   8
loop_
 _symmetry_equiv_pos_site_id
 _symmetry_equiv_pos_as_xyz
  1  'x, y, z'
  2  '-x, -y, z'
  3  '-x, y, z+1/2'
  4  'x, -y, z+1/2'
loop_
 _atom_site_type_symbol
 _atom_site_label
 _atom_site_symmetry_multiplicity
 _atom_site_fract_x
 _atom_site_fract_y
 _atom_site_fract_z
 _atom_site_occupancy
  Cu  Cu0  2  0.00000000  0.00000000  0.29309072  1
  Cu  Cu1  2  0.00000000  0.50000000  0.45024522  1
  Cu  Cu2  2  0.50000000  0.00000000  0.44150156  1
  Cu  Cu3  2  0.50000000  0.50000000  0.14413049  1
  Au  Au4  4  0.06914337  0.33651044  0.04617408  1
  Au  Au5  4  0.35976845  0.23183710  0.20889141  1
# generated using pymatgen
data_ID_18
_symmetry_space_group_name_H-M   Pba2
_cell_length_a   4.82747047
_cell_length_b   5.14358548
_cell_length_c   9.72276073
_cell_angle_alpha   90.00000000
_cell_angle_beta   90.00000000
_cell_angle_gamma   90.00000000
_symmetry_Int_Tables_number   32
_chemical_formula_structural   CuAu
_cell_volume   241.42107831
_cell_formula_units_Z   8
loop_
 _symmetry_equiv_pos_site_id
 _symmetry_equiv_pos_as_xyz
  1  'x, y, z'
  2  '-x, -y, z'
  3  '-x+1/2, y+1/2, z'
  4  'x+1/2, -y+1/2, z'
loop_
 _atom_site_type_symbol
 _atom_site_label
 _atom_site_symmetry_multiplicity
 _atom_site_fract_x
 _atom_site_fract_y
 _atom_site_fract_z
 _atom_site_occupancy
  Cu  Cu0  4  0.17844162  0.02639460  0.52741265  1
  Cu  Cu1  4  0.24823479  0.12799846  0.80727948  1
  Au  Au2  2  0.00000000  0.00000000  0.20472819  1
  Au  Au3  2  0.00000000  0.00000000  0.68181041  1
  Au  Au4  2  0.00000000  0.50000000  0.10610199  1
  Au  Au5  2  0.00000000  0.50000000  0.50013000  1
# generated using pymatgen
data_ID_19
_symmetry_space_group_name_H-M   Iba2
_cell_length_a   5.61511314
_cell_length_b   14.30209595
_cell_length_c   6.36349506
_cell_angle_alpha   90.00000000
_cell_angle_beta   90.00000000
_cell_angle_gamma   90.00000000
_symmetry_Int_Tables_number   45
_chemical_formula_structural   CuAu
_cell_volume   511.03884180
_cell_formula_units_Z   16
loop_
 _symmetry_equiv_pos_site_id
 _symmetry_equiv_pos_as_xyz
  1  'x, y, z'
  2  '-x, -y, z'
  3  '-x, y, z+1/2'
  4  'x, -y, z+1/2'
  5  'x+1/2, y+1/2, z+1/2'
  6  '-x+1/2, -y+1/2, z+1/2'
  7  '-x+1/2, y+1/2, z'
  8  'x+1/2, -y+1/2, z'
loop_
 _atom_site_type_symbol
 _atom_site_label
 _atom_site_symmetry_multiplicity
 _atom_site_fract_x
 _atom_site_fract_y
 _atom_site_fract_z
 _atom_site_occupancy
  Cu  Cu0  8  0.14490725  0.15354950  0.88654112  1
  Cu  Cu1  4  0.00000000  0.00000000  0.45643124  1
  Cu  Cu2  4  0.00000000  0.50000000  0.00696614  1
  Au  Au3  8  0.20511472  0.01683748  0.28191530  1
  Au  Au4  8  0.20795975  0.43800890  0.96252409  1
# generated using pymatgen
data_ID_20
_symmetry_space_group_name_H-M   Pm-3n
_cell_length_a   5.92746244
_cell_length_b   5.92746244
_cell_length_c   5.92746244
_cell_angle_alpha   90.00000000
_cell_angle_beta   90.00000000
_cell_angle_gamma   90.00000000
_symmetry_Int_Tables_number   223
_chemical_formula_structural   CuAu
_cell_volume   208.26027282
_cell_formula_units_Z   8
loop_
 _symmetry_equiv_pos_site_id
 _symmetry_equiv_pos_as_xyz
  1  'x, y, z'
  2  '-x, -y, -z'
  3  '-y+1/2, x+1/2, z+1/2'
  4  'y+1/2, -x+1/2, -z+1/2'
  5  '-x, -y, z'
  6  'x, y, -z'
  7  'y+1/2, -x+1/2, z+1/2'
  8  '-y+1/2, x+1/2, -z+1/2'
  9  'x, -y, -z'
  10  '-x, y, z'
  11  '-y+1/2, -x+1/2, -z+1/2'
  12  'y+1/2, x+1/2, z+1/2'
  13  '-x, y, -z'
  14  'x, -y, z'
  15  'y+1/2, x+1/2, -z+1/2'
  16  '-y+1/2, -x+1/2, z+1/2'
  17  'z, x, y'
  18  '-z, -x, -y'
  19  'z+1/2, -y+1/2, x+1/2'
  20  '-z+1/2, y+1/2, -x+1/2'
  21  'z, -x, -y'
  22  '-z, x, y'
  23  'z+1/2, y+1/2, -x+1/2'
  24  '-z+1/2, -y+1/2, x+1/2'
  25  '-z, x, -y'
  26  'z, -x, y'
  27  '-z+1/2, -y+1/2, -x+1/2'
  28  'z+1/2, y+1/2, x+1/2'
  29  '-z, -x, y'
  30  'z, x, -y'
  31  '-z+1/2, y+1/2, x+1/2'
  32  'z+1/2, -y+1/2, -x+1/2'
  33  'y, z, x'
  34  '-y, -z, -x'
  35  'x+1/2, z+1/2, -y+1/2'
  36  '-x+1/2, -z+1/2, y+1/2'
  37  '-y, z, -x'
  38  'y, -z, x'
  39  '-x+1/2, z+1/2, y+1/2'
  40  'x+1/2, -z+1/2, -y+1/2'
  41  '-y, -z, x'
  42  'y, z, -x'
  43  '-x+1/2, -z+1/2, -y+1/2'
  44  'x+1/2, z+1/2, y+1/2'
  45  'y, -z, -x'
  46  '-y, z, x'
  47  'x+1/2, -z+1/2, y+1/2'
  48  '-x+1/2, z+1/2, -y+1/2'
loop_
 _atom_site_type_symbol
 _atom_site_label
 _atom_site_symmetry_multiplicity
 _atom_site_fract_x
 _atom_site_fract_y
 _atom_site_fract_z
 _atom_site_occupancy
  Cu  Cu0  6  0.00000000  0.50000000  0.25000000  1
  Cu  Cu1  2  0.00000000  0.00000000  0.00000000  1
  Au  Au2  8  0.25000000  0.25000000  0.25000000  1
# generated using pymatgen
data_ID_21
_symmetry_space_group_name_H-M   I4_1/amd
_cell_length_a   6.21813127
_cell_length_b   6.21813127
_cell_length_c   12.34439925
_cell_angle_alpha   90.00000000
_cell_angle_beta   90.00000000
_cell_angle_gamma   90.00000000
_symmetry_Int_Tables_number   141
_chemical_formula_structural   CuAu
_cell_volume   477.29812795
_cell_formula_units_Z   16
loop_
 _symmetry_equiv_pos_site_id
 _symmetry_equiv_pos_as_xyz
  1  'x, y, z'
  2  '-y, x+1/2, z+1/4'
  3  '-x+1/2, -y+1/2, z+1/2'
  4  'y+1/2, -x, z+3/4'
  5  'x, -y+1/2, -z+1/4'
  6  '-y, -x, -z'
  7  '-x+1/2, y, -z+3/4'
  8  'y+1/2, x+1/2, -z+1/2'
  9  '-x, -y+1/2, -z+1/4'
  10  'y, -x, -z'
  11  'x+1/2, y, -z+3/4'
  12  '-y+1/2, x+1/2, -z+1/2'
  13  '-x, y, z'
  14  'y, x+1/2, z+1/4'
  15  'x+1/2, -y+1/2, z+1/2'
  16  '-y+1/2, -x, z+3/4'
  17  'x+1/2, y+1/2, z+1/2'
  18  '-y+1/2, x, z+3/4'
  19  '-x, -y, z'
  20  'y, -x+1/2, z+1/4'
  21  'x+1/2, -y, -z+3/4'
  22  '-y+1/2, -x+1/2, -z+1/2'
  23  '-x, y+1/2, -z+1/4'
  24  'y, x, -z'
  25  '-x+1/2, -y, -z+3/4'
  26  'y+1/2, -x+1/2, -z+1/2'
  27  'x, y+1/2, -z+1/4'
  28  '-y, x, -z'
  29  '-x+1/2, y+1/2, z+1/2'
  30  'y+1/2, x, z+3/4'
  31  'x, -y, z'
  32  '-y, -x+1/2, z+1/4'
loop_
 _atom_site_type_symbol
 _atom_site_label
 _atom_site_symmetry_multiplicity
 _atom_site_fract_x
 _atom_site_fract_y
 _atom_site_fract_z
 _atom_site_occupancy
  Cu  Cu0  8  0.00000000  0.00000000  0.20524081  1
  Cu  Cu1  8  0.00000000  0.25000000  0.62500000  1
  Au  Au2  8  0.00000000  0.25000000  0.12500000  1
  Au  Au3  4  0.00000000  0.00000000  0.00000000  1
  Au  Au4  4  0.00000000  0.00000000  0.50000000  1
# generated using pymatgen
data_ID_22
_symmetry_space_group_name_H-M   I222
_cell_length_a   6.32884939
_cell_length_b   7.85614600
_cell_length_c   8.22500298
_cell_angle_alpha   90.00000000
_cell_angle_beta   90.00000000
_cell_angle_gamma   90.00000000
_symmetry_Int_Tables_number   23
_chemical_formula_structural   CuAu
_cell_volume   408.95014835
_cell_formula_units_Z   16
loop_
 _symmetry_equiv_pos_site_id
 _symmetry_equiv_pos_as_xyz
  1  'x, y, z'
  2  '-x, -y, z'
  3  'x, -y, -z'
  4  '-x, y, -z'
  5  'x+1/2, y+1/2, z+1/2'
  6  '-x+1/2, -y+1/2, z+1/2'
  7  'x+1/2, -y+1/2, -z+1/2'
  8  '-x+1/2, y+1/2, -z+1/2'
loop_
 _atom_site_type_symbol
 _atom_site_label
 _atom_site_symmetry_multiplicity
 _atom_site_fract_x
 _atom_site_fract_y
 _atom_site_fract_z
 _atom_site_occupancy
  Cu  Cu0  8  0.07779862  0.12218963  0.72164205  1
  Cu  Cu1  4  0.00000000  0.00000000  0.08451327  1
  Cu  Cu2  2  0.00000000  0.00000000  0.50000000  1
  Cu  Cu3  2  0.00000000  0.50000000  0.00000000  1
  Au  Au4  8  0.06082310  0.29694368  0.29834354  1
  Au  Au5  8  0.23040070  0.04134379  0.34390194  1
# generated using pymatgen
data_ID_23
_symmetry_space_group_name_H-M   P6_3/mcm
_cell_length_a   6.45712493
_cell_length_b   6.45712493
_cell_length_c   5.88847459
_cell_angle_alpha   90.00000000
_cell_angle_beta   90.00000000
_cell_angle_gamma   120.00000000
_symmetry_Int_Tables_number   193
_chemical_formula_structural   CuAu
_cell_volume   212.62377036
_cell_formula_units_Z   8
loop_
 _symmetry_equiv_pos_site_id
 _symmetry_equiv_pos_as_xyz
  1  'x, y, z'
  2  '-x, -y, -z'
  3  'x-y, x, z+1/2'
  4  '-x+y, -x, -z+1/2'
  5  '-y, x-y, z'
  6  'y, -x+y, -z'
  7  '-x, -y, z+1/2'
  8  'x, y, -z+1/2'
  9  '-x+y, -x, z'
  10  'x-y, x, -z'
  11  'y, -x+y, z+1/2'
  12  '-y, x-y, -z+1/2'
  13  '-y, -x, -z'
  14  'y, x, z'
  15  '-x, -x+y, -z+1/2'
  16  'x, x-y, z+1/2'
  17  '-x+y, y, -z'
  18  'x-y, -y, z'
  19  'y, x, -z+1/2'
  20  '-y, -x, z+1/2'
  21  'x, x-y, -z'
  22  '-x, -x+y, z'
  23  'x-y, -y, -z+1/2'
  24  '-x+y, y, z+1/2'
loop_
 _atom_site_type_symbol
 _atom_site_label
 _atom_site_symmetry_multiplicity
 _atom_site_fract_x
 _atom_site_fract_y
 _atom_site_fract_z
 _atom_site_occupancy
  Cu  Cu0  6  0.00000000  0.29287964  0.75000000  1
  Cu  Cu1  2  0.00000000  0.00000000  0.25000000  1
  Au  Au2  6  0.00000000  0.50000000  0.00000000  1
  Au  Au3  2  0.00000000  0.00000000  0.00000000  1
# generated using pymatgen
data_ID_24
_symmetry_space_group_name_H-M   I4_1md
_cell_length_a   5.32034603
_cell_length_b   5.32034603
_cell_length_c   18.31685996
_cell_angle_alpha   90.00000000
_cell_angle_beta   90.00000000
_cell_angle_gamma   90.00000000
_symmetry_Int_Tables_number   109
_chemical_formula_structural   CuAu
_cell_volume   518.47853819
_cell_formula_units_Z   16
loop_
 _symmetry_equiv_pos_site_id
 _symmetry_equiv_pos_as_xyz
  1  'x, y, z'
  2  '-y, x+1/2, z+1/4'
  3  '-x+1/2, -y+1/2, z+1/2'
  4  'y+1/2, -x, z+3/4'
  5  '-x, y, z'
  6  'y, x+1/2, z+1/4'
  7  'x+1/2, -y+1/2, z+1/2'
  8  '-y+1/2, -x, z+3/4'
  9  'x+1/2, y+1/2, z+1/2'
  10  '-y+1/2, x, z+3/4'
  11  '-x, -y, z'
  12  'y, -x+1/2, z+1/4'
  13  '-x+1/2, y+1/2, z+1/2'
  14  'y+1/2, x, z+3/4'
  15  'x, -y, z'
  16  '-y, -x+1/2, z+1/4'
loop_
 _atom_site_type_symbol
 _atom_site_label
 _atom_site_symmetry_multiplicity
 _atom_site_fract_x
 _atom_site_fract_y
 _atom_site_fract_z
 _atom_site_occupancy
  Cu  Cu0  8  0.00000000  0.27534246  0.01574137  1
  Cu  Cu1  4  0.00000000  0.00000000  0.36605394  1
  Cu  Cu2  4  0.00000000  0.00000000  0.45191112  1
  Au  Au3  8  0.00000000  0.16027387  0.83517044  1
  Au  Au4  8  0.00000000  0.33443815  0.77612387  1
# generated using pymatgen
data_ID_25
_symmetry_space_group_name_H-M   P4/mmm
_cell_length_a   7.18953600
_cell_length_b   7.18953600
_cell_length_c   3.71744095
_cell_angle_alpha   90.00000000
_cell_angle_beta   90.00000000
_cell_angle_gamma   90.00000000
_symmetry_Int_Tables_number   123
_chemical_formula_structural   CuAu
_cell_volume   192.15239572
_cell_formula_units_Z   8
loop_
 _symmetry_equiv_pos_site_id
 _symmetry_equiv_pos_as_xyz
  1  'x, y, z'
  2  '-x, -y, -z'
  3  '-y, x, z'
  4  'y, -x, -z'
  5  '-x, -y, z'
  6  'x, y, -z'
  7  'y, -x, z'
  8  '-y, x, -z'
  9  'x, -y, -z'
  10  '-x, y, z'
  11  '-y, -x, -z'
  12  'y, x, z'
  13  '-x, y, -z'
  14  'x, -y, z'
  15  'y, x, -z'
  16  '-y, -x, z'
loop_
 _atom_site_type_symbol
 _atom_site_label
 _atom_site_symmetry_multiplicity
 _atom_site_fract_x
 _atom_site_fract_y
 _atom_site_fract_z
 _atom_site_occupancy
  Cu  Cu0  4  0.22207844  0.50000000  0.00000000  1
  Cu  Cu1  2  0.00000000  0.50000000  0.50000000  1
  Cu  Cu2  1  0.50000000  0.50000000  0.00000000  1
  Cu  Cu3  1  0.50000000  0.50000000  0.50000000  1
  Au  Au4  4  0.00000000  0.14019438  0.50000000  1
  Au  Au5  4  0.31344970  0.31344970  0.50000000  1
# generated using pymatgen
data_ID_26
_symmetry_space_group_name_H-M   Cccm
_cell_length_a   5.50019242
_cell_length_b   8.08377903
_cell_length_c   8.90674769
_cell_angle_alpha   90.00000000
_cell_angle_beta   90.00000000
_cell_angle_gamma   90.00000000
_symmetry_Int_Tables_number   66
_chemical_formula_structural   CuAu
_cell_volume   396.01484522
_cell_formula_units_Z   16
loop_
 _symmetry_equiv_pos_site_id
 _symmetry_equiv_pos_as_xyz
  1  'x, y, z'
  2  '-x, -y, -z'
  3  '-x, -y, z'
  4  'x, y, -z'
  5  'x, -y, -z+1/2'
  6  '-x, y, z+1/2'
  7  '-x, y, -z+1/2'
  8  'x, -y, z+1/2'
  9  'x+1/2, y+1/2, z'
  10  '-x+1/2, -y+1/2, -z'
  11  '-x+1/2, -y+1/2, z'
  12  'x+1/2, y+1/2, -z'
  13  'x+1/2, -y+1/2, -z+1/2'
  14  '-x+1/2, y+1/2, z+1/2'
  15  '-x+1/2, y+1/2, -z+1/2'
  16  'x+1/2, -y+1/2, z+1/2'
loop_
 _atom_site_type_symbol
 _atom_site_label
 _atom_site_symmetry_multiplicity
 _atom_site_fract_x
 _atom_site_fract_y
 _atom_site_fract_z
 _atom_site_occupancy
  Cu  Cu0  8  0.21999957  0.50000000  0.25000000  1
  Cu  Cu1  4  0.00000000  0.00000000  0.00000000  1
  Cu  Cu2  4  0.25000000  0.25000000  0.00000000  1
  Au  Au3  8  0.00000000  0.25669375  0.25000000  1
  Au  Au4  4  0.00000000  0.00000000  0.25000000  1
  Au  Au5  4  0.00000000  0.50000000  0.00000000  1
# generated using pymatgen
data_ID_27
_symmetry_space_group_name_H-M   P-43m
_cell_length_a   5.80447624
_cell_length_b   5.80447624
_cell_length_c   5.80447624
_cell_angle_alpha   90.00000000
_cell_angle_beta   90.00000000
_cell_angle_gamma   90.00000000
_symmetry_Int_Tables_number   215
_chemical_formula_structural   CuAu
_cell_volume   195.56409078
_cell_formula_units_Z   8
loop_
 _symmetry_equiv_pos_site_id
 _symmetry_equiv_pos_as_xyz
  1  'x, y, z'
  2  'y, -x, -z'
  3  '-x, -y, z'
  4  '-y, x, -z'
  5  'x, -y, -z'
  6  'y, x, z'
  7  '-x, y, -z'
  8  '-y, -x, z'
  9  'z, x, y'
  10  '-z, y, -x'
  11  'z, -x, -y'
  12  '-z, -y, x'
  13  '-z, x, -y'
  14  'z, y, x'
  15  '-z, -x, y'
  16  'z, -y, -x'
  17  'y, z, x'
  18  '-x, -z, y'
  19  '-y, z, -x'
  20  'x, -z, -y'
  21  '-y, -z, x'
  22  'x, z, y'
  23  'y, -z, -x'
  24  '-x, z, -y'
loop_
 _atom_site_type_symbol
 _atom_site_label
 _atom_site_symmetry_multiplicity
 _atom_site_fract_x
 _atom_site_fract_y
 _atom_site_fract_z
 _atom_site_occupancy
  Cu  Cu0  4  0.14480314  0.14480314  0.14480314  1
  Cu  Cu1  3  0.00000000  0.50000000  0.50000000  1
  Cu  Cu2  1  0.00000000  0.00000000  0.00000000  1
  Au  Au3  4  0.34922490  0.34922490  0.65077510  1
  Au  Au4  3  0.00000000  0.00000000  0.50000000  1
  Au  Au5  1  0.50000000  0.50000000  0.50000000  1
# generated using pymatgen
data_ID_28
_symmetry_space_group_name_H-M   Pma2
_cell_length_a   5.59590088
_cell_length_b   6.15863260
_cell_length_c   6.97912610
_cell_angle_alpha   90.00000000
_cell_angle_beta   90.00000000
_cell_angle_gamma   90.00000000
_symmetry_Int_Tables_number   28
_chemical_formula_structural   CuAu
_cell_volume   240.52230379
_cell_formula_units_Z   8
loop_
 _symmetry_equiv_pos_site_id
 _symmetry_equiv_pos_as_xyz
  1  'x, y, z'
  2  '-x, -y, z'
  3  '-x+1/2, y, z'
  4  'x+1/2, -y, z'
loop_
 _atom_site_type_symbol
 _atom_site_label
 _atom_site_symmetry_multiplicity
 _atom_site_fract_x
 _atom_site_fract_y
 _atom_site_fract_z
 _atom_site_occupancy
  Cu  Cu0  2  0.00000000  0.50000000  0.61932698  1
  Cu  Cu1  2  0.25000000  0.78679991  0.13599860  1
  Cu  Cu2  2  0.25000000  0.94252202  0.35200377  1
  Cu  Cu3  2  0.25000000  0.98432281  0.70298910  1
  Au  Au4  4  0.10156382  0.31172154  0.88400398  1
  Au  Au5  2  0.00000000  0.00000000  0.92053469  1
  Au  Au6  2  0.00000000  0.50000000  0.26294346  1
# generated using pymatgen
data_ID_29
_symmetry_space_group_name_H-M   Ia-3
_cell_length_a   7.98550623
_cell_length_b   7.98550623
_cell_length_c   7.98550623
_cell_angle_alpha   90.00000000
_cell_angle_beta   90.00000000
_cell_angle_gamma   90.00000000
_symmetry_Int_Tables_number   206
_chemical_formula_structural   CuAu
_cell_volume   509.22223565
_cell_formula_units_Z   16
loop_
 _symmetry_equiv_pos_site_id
 _symmetry_equiv_pos_as_xyz
  1  'x, y, z'
  2  '-x, -y, -z'
  3  '-x, -y+1/2, z'
  4  'x, y+1/2, -z'
  5  'x, -y, -z+1/2'
  6  '-x, y, z+1/2'
  7  '-x, y+1/2, -z+1/2'
  8  'x, -y+1/2, z+1/2'
  9  'z, x, y'
  10  '-z, -x, -y'
  11  'z, -x, -y+1/2'
  12  '-z, x, y+1/2'
  13  '-z+1/2, x, -y'
  14  'z+1/2, -x, y'
  15  '-z+1/2, -x, y+1/2'
  16  'z+1/2, x, -y+1/2'
  17  'y, z, x'
  18  '-y, -z, -x'
  19  '-y+1/2, z, -x'
  20  'y+1/2, -z, x'
  21  '-y, -z+1/2, x'
  22  'y, z+1/2, -x'
  23  'y+1/2, -z+1/2, -x'
  24  '-y+1/2, z+1/2, x'
  25  'x+1/2, y+1/2, z+1/2'
  26  '-x+1/2, -y+1/2, -z+1/2'
  27  '-x+1/2, -y, z+1/2'
  28  'x+1/2, y, -z+1/2'
  29  'x+1/2, -y+1/2, -z'
  30  '-x+1/2, y+1/2, z'
  31  '-x+1/2, y, -z'
  32  'x+1/2, -y, z'
  33  'z+1/2, x+1/2, y+1/2'
  34  '-z+1/2, -x+1/2, -y+1/2'
  35  'z+1/2, -x+1/2, -y'
  36  '-z+1/2, x+1/2, y'
  37  '-z, x+1/2, -y+1/2'
  38  'z, -x+1/2, y+1/2'
  39  '-z, -x+1/2, y'
  40  'z, x+1/2, -y'
  41  'y+1/2, z+1/2, x+1/2'
  42  '-y+1/2, -z+1/2, -x+1/2'
  43  '-y, z+1/2, -x+1/2'
  44  'y, -z+1/2, x+1/2'
  45  '-y+1/2, -z, x+1/2'
  46  'y+1/2, z, -x+1/2'
  47  'y, -z, -x+1/2'
  48  '-y, z, x+1/2'
loop_
 _atom_site_type_symbol
 _atom_site_label
 _atom_site_symmetry_multiplicity
 _atom_site_fract_x
 _atom_site_fract_y
 _atom_site_fract_z
 _atom_site_occupancy
  Cu  Cu0  8  0.00000000  0.00000000  0.00000000  1
  Cu  Cu1  8  0.25000000  0.25000000  0.25000000  1
  Au  Au2  16  0.10235292  0.10235292  0.10235292  1
# generated using pymatgen
data_ID_30
_symmetry_space_group_name_H-M   P6/mmm
_cell_length_a   4.81405035
_cell_length_b   4.81405035
_cell_length_c   9.73186432
_cell_angle_alpha   90.00000000
_cell_angle_beta   90.00000000
_cell_angle_gamma   120.00000000
_symmetry_Int_Tables_number   191
_chemical_formula_structural   CuAu
_cell_volume   195.32054795
_cell_formula_units_Z   8
loop_
 _symmetry_equiv_pos_site_id
 _symmetry_equiv_pos_as_xyz
  1  'x, y, z'
  2  '-x, -y, -z'
  3  'x-y, x, z'
  4  '-x+y, -x, -z'
  5  '-y, x-y, z'
  6  'y, -x+y, -z'
  7  '-x, -y, z'
  8  'x, y, -z'
  9  '-x+y, -x, z'
  10  'x-y, x, -z'
  11  'y, -x+y, z'
  12  '-y, x-y, -z'
  13  '-y, -x, -z'
  14  'y, x, z'
  15  '-x, -x+y, -z'
  16  'x, x-y, z'
  17  '-x+y, y, -z'
  18  'x-y, -y, z'
  19  'y, x, -z'
  20  '-y, -x, z'
  21  'x, x-y, -z'
  22  '-x, -x+y, z'
  23  'x-y, -y, -z'
  24  '-x+y, y, z'
loop_
 _atom_site_type_symbol
 _atom_site_label
 _atom_site_symmetry_multiplicity
 _atom_site_fract_x
 _atom_site_fract_y
 _atom_site_fract_z
 _atom_site_occupancy
  Cu  Cu0  4  0.33333333  0.66666667  0.19524857  1
  Cu  Cu1  3  0.00000000  0.50000000  0.50000000  1
  Cu  Cu2  1  0.00000000  0.00000000  0.50000000  1
  Au  Au3  3  0.00000000  0.50000000  0.00000000  1
  Au  Au4  2  0.00000000  0.00000000  0.36062939  1
  Au  Au5  2  0.33333333  0.66666667  0.50000000  1
  Au  Au6  1  0.00000000  0.00000000  0.00000000  1
# generated using pymatgen
data_ID_31
_symmetry_space_group_name_H-M   Cmce
_cell_length_a   3.61275928
_cell_length_b   6.76465305
_cell_length_c   9.74833769
_cell_angle_alpha   90.00000000
_cell_angle_beta   90.00000000
_cell_angle_gamma   90.00000000
_symmetry_Int_Tables_number   64
_chemical_formula_structural   CuAu
_cell_volume   238.24024006
_cell_formula_units_Z   8
loop_
 _symmetry_equiv_pos_site_id
 _symmetry_equiv_pos_as_xyz
  1  'x, y, z'
  2  '-x, -y, -z'
  3  '-x+1/2, -y, z+1/2'
  4  'x+1/2, y, -z+1/2'
  5  'x, -y, -z'
  6  '-x, y, z'
  7  '-x+1/2, y, -z+1/2'
  8  'x+1/2, -y, z+1/2'
  9  'x+1/2, y+1/2, z'
  10  '-x+1/2, -y+1/2, -z'
  11  '-x, -y+1/2, z+1/2'
  12  'x, y+1/2, -z+1/2'
  13  'x+1/2, -y+1/2, -z'
  14  '-x+1/2, y+1/2, z'
  15  '-x, y+1/2, -z+1/2'
  16  'x, -y+1/2, z+1/2'
loop_
 _atom_site_type_symbol
 _atom_site_label
 _atom_site_symmetry_multiplicity
 _atom_site_fract_x
 _atom_site_fract_y
 _atom_site_fract_z
 _atom_site_occupancy
  Cu  Cu0  8  0.00000000  0.18305327  0.83308672  1
  Au  Au1  4  0.00000000  0.00000000  0.00000000  1
  Au  Au2  4  0.00000000  0.00000000  0.50000000  1
# generated using pymatgen
data_ID_32
_symmetry_space_group_name_H-M   P31m
_cell_length_a   6.07930970
_cell_length_b   6.07930970
_cell_length_c   6.93762286
_cell_angle_alpha   90.00000000
_cell_angle_beta   90.00000000
_cell_angle_gamma   120.00000000
_symmetry_Int_Tables_number   157
_chemical_formula_structural   CuAu
_cell_volume   222.04952885
_cell_formula_units_Z   8
loop_
 _symmetry_equiv_pos_site_id
 _symmetry_equiv_pos_as_xyz
  1  'x, y, z'
  2  '-y, x-y, z'
  3  '-x+y, -x, z'
  4  'y, x, z'
  5  'x-y, -y, z'
  6  '-x, -x+y, z'
loop_
 _atom_site_type_symbol
 _atom_site_label
 _atom_site_symmetry_multiplicity
 _atom_site_fract_x
 _atom_site_fract_y
 _atom_site_fract_z
 _atom_site_occupancy
  Cu  Cu0  3  0.00000000  0.25804535  0.15069744  1
  Cu  Cu1  3  0.00000000  0.81869991  0.91514936  1
  Cu  Cu2  2  0.33333333  0.66666667  0.80367406  1
  Au  Au3  6  0.15553217  0.54838352  0.47746813  1
  Au  Au4  2  0.33333333  0.66666667  0.13526086  1
# generated using pymatgen
data_ID_33
_symmetry_space_group_name_H-M   P2
_cell_length_a   6.49507541
_cell_length_b   3.22045716
_cell_length_c   12.47748445
_cell_angle_alpha   90.00000000
_cell_angle_beta   94.83462970
_cell_angle_gamma   90.00000000
_symmetry_Int_Tables_number   3
_chemical_formula_structural   CuAu
_cell_volume   260.06435490
_cell_formula_units_Z   8
loop_
 _symmetry_equiv_pos_site_id
 _symmetry_equiv_pos_as_xyz
  1  'x, y, z'
  2  '-x, y, -z'
loop_
 _atom_site_type_symbol
 _atom_site_label
 _atom_site_symmetry_multiplicity
 _atom_site_fract_x
 _atom_site_fract_y
 _atom_site_fract_z
 _atom_site_occupancy
  Cu  Cu0  2  0.17682471  0.00106517  0.15289114  1
  Cu  Cu1  2  0.25921878  0.80184275  0.84900726  1
  Cu  Cu2  2  0.33495893  0.57083482  0.99797645  1
  Cu  Cu3  2  0.39373340  0.96986359  0.92178828  1
  Au  Au4  2  0.14617130  0.16581142  0.69894011  1
  Au  Au5  2  0.14941322  0.18189967  0.42062634  1
  Au  Au6  2  0.35403662  0.83823753  0.52728097  1
  Au  Au7  1  0.00000000  0.11820924  0.50000000  1
  Au  Au8  1  0.50000000  0.27405694  0.00000000  1
# generated using pymatgen
data_ID_34
_symmetry_space_group_name_H-M   P-1
_cell_length_a   4.33985676
_cell_length_b   5.32024410
_cell_length_c   9.87489783
_cell_angle_alpha   81.59329996
_cell_angle_beta   87.76780120
_cell_angle_gamma   73.87590175
_symmetry_Int_Tables_number   2
_chemical_formula_structural   CuAu
_cell_volume   216.67962577
_cell_formula_units_Z   8
loop_
 _symmetry_equiv_pos_site_id
 _symmetry_equiv_pos_as_xyz
  1  'x, y, z'
  2  '-x, -y, -z'
loop_
 _atom_site_type_symbol
 _atom_site_label
 _atom_site_symmetry_multiplicity
 _atom_site_fract_x
 _atom_site_fract_y
 _atom_site_fract_z
 _atom_site_occupancy
  Cu  Cu0  2  0.09446744  0.95168724  0.14114868  1
  Cu  Cu1  2  0.23889262  0.08844866  0.80826558  1
  Cu  Cu2  1  0.00000000  0.00000000  0.00000000  1
  Cu  Cu3  1  0.00000000  0.50000000  0.00000000  1
  Cu  Cu4  1  0.00000000  0.50000000  0.50000000  1
  Cu  Cu5  1  0.50000000  0.50000000  0.00000000  1
  Au  Au6  2  0.00163574  0.71991437  0.09275804  1
  Au  Au7  2  0.17220984  0.10211960  0.65082495  1
  Au  Au8  2  0.36804751  0.81530635  0.44834496  1
  Au  Au9  1  0.50000000  0.00000000  0.00000000  1
  Au  Au10  1  0.50000000  0.50000000  0.50000000  1
# generated using pymatgen
data_ID_35
_symmetry_space_group_name_H-M   I-4c2
_cell_length_a   7.36076054
_cell_length_b   7.36076054
_cell_length_c   8.49527495
_cell_angle_alpha   90.00000000
_cell_angle_beta   90.00000000
_cell_angle_gamma   90.00000000
_symmetry_Int_Tables_number   120
_chemical_formula_structural   CuAu
_cell_volume   460.28075623
_cell_formula_units_Z   16
loop_
 _symmetry_equiv_pos_site_id
 _symmetry_equiv_pos_as_xyz
  1  'x, y, z'
  2  'y, -x, -z'
  3  '-x, -y, z'
  4  '-y, x, -z'
  5  '-x, y, z+1/2'
  6  '-y, -x, -z+1/2'
  7  'x, -y, z+1/2'
  8  'y, x, -z+1/2'
  9  'x+1/2, y+1/2, z+1/2'
  10  'y+1/2, -x+1/2, -z+1/2'
  11  '-x+1/2, -y+1/2, z+1/2'
  12  '-y+1/2, x+1/2, -z+1/2'
  13  '-x+1/2, y+1/2, z'
  14  '-y+1/2, -x+1/2, -z'
  15  'x+1/2, -y+1/2, z'
  16  'y+1/2, x+1/2, -z'
loop_
 _atom_site_type_symbol
 _atom_site_label
 _atom_site_symmetry_multiplicity
 _atom_site_fract_x
 _atom_site_fract_y
 _atom_site_fract_z
 _atom_site_occupancy
  Cu  Cu0  8  0.20409241  0.20409241  0.75000000  1
  Cu  Cu1  4  0.00000000  0.00000000  0.00000000  1
  Cu  Cu2  4  0.00000000  0.50000000  0.25000000  1
  Au  Au3  16  0.05944296  0.32504438  0.75760951  1
# generated using pymatgen
data_ID_36
_symmetry_space_group_name_H-M   P2
_cell_length_a   5.76271352
_cell_length_b   5.37716214
_cell_length_c   6.68009105
_cell_angle_alpha   90.00000000
_cell_angle_beta   104.83463174
_cell_angle_gamma   90.00000000
_symmetry_Int_Tables_number   3
_chemical_formula_structural   CuAu
_cell_volume   200.09684944
_cell_formula_units_Z   8
loop_
 _symmetry_equiv_pos_site_id
 _symmetry_equiv_pos_as_xyz
  1  'x, y, z'
  2  '-x, y, -z'
loop_
 _atom_site_type_symbol
 _atom_site_label
 _atom_site_symmetry_multiplicity
 _atom_site_fract_x
 _atom_site_fract_y
 _atom_site_fract_z
 _atom_site_occupancy
  Cu  Cu0  2  0.07789024  0.48756417  0.34107245  1
  Cu  Cu1  2  0.21794302  0.93638846  0.44930889  1
  Cu  Cu2  2  0.24503141  0.15411148  0.68894196  1
  Cu  Cu3  1  0.00000000  0.49052398  0.00000000  1
  Cu  Cu4  1  0.50000000  0.75310665  0.50000000  1
  Au  Au5  2  0.02865333  0.95417713  0.72438521  1
  Au  Au6  2  0.12110531  0.28142627  0.90627774  1
  Au  Au7  2  0.42034294  0.87545875  0.28500146  1
  Au  Au8  1  0.00000000  0.01589153  0.00000000  1
  Au  Au9  1  0.50000000  0.61811465  0.00000000  1
# generated using pymatgen
data_ID_37
_symmetry_space_group_name_H-M   P-42m
_cell_length_a   6.16190199
_cell_length_b   6.16190199
_cell_length_c   6.96458215
_cell_angle_alpha   90.00000000
_cell_angle_beta   90.00000000
_cell_angle_gamma   90.00000000
_symmetry_Int_Tables_number   111
_chemical_formula_structural   CuAu
_cell_volume   264.43847156
_cell_formula_units_Z   8
loop_
 _symmetry_equiv_pos_site_id
 _symmetry_equiv_pos_as_xyz
  1  'x, y, z'
  2  'y, -x, -z'
  3  '-x, -y, z'
  4  '-y, x, -z'
  5  'x, -y, -z'
  6  'y, x, z'
  7  '-x, y, -z'
  8  '-y, -x, z'
loop_
 _atom_site_type_symbol
 _atom_site_label
 _atom_site_symmetry_multiplicity
 _atom_site_fract_x
 _atom_site_fract_y
 _atom_site_fract_z
 _atom_site_occupancy
  Cu  Cu0  4  0.00000000  0.27927486  0.00000000  1
  Cu  Cu1  2  0.00000000  0.50000000  0.00000000  1
  Cu  Cu2  2  0.00000000  0.50000000  0.50000000  1
  Au  Au3  4  0.17349582  0.17349582  0.49383606  1
  Au  Au4  2  0.00000000  0.00000000  0.30479236  1
  Au  Au5  1  0.00000000  0.00000000  0.00000000  1
  Au  Au6  1  0.50000000  0.50000000  0.00000000  1
# generated using pymatgen
data_ID_38
_symmetry_space_group_name_H-M   Pbcn
_cell_length_a   7.58968537
_cell_length_b   6.15611151
_cell_length_c   4.33960106
_cell_angle_alpha   90.00000000
_cell_angle_beta   90.00000000
_cell_angle_gamma   90.00000000
_symmetry_Int_Tables_number   60
_chemical_formula_structural   CuAu
_cell_volume   202.75896103
_cell_formula_units_Z   8
loop_
 _symmetry_equiv_pos_site_id
 _symmetry_equiv_pos_as_xyz
  1  'x, y, z'
  2  '-x, -y, -z'
  3  '-x+1/2, -y+1/2, z+1/2'
  4  'x+1/2, y+1/2, -z+1/2'
  5  'x+1/2, -y+1/2, -z'
  6  '-x+1/2, y+1/2, z'
  7  '-x, y, -z+1/2'
  8  'x, -y, z+1/2'
loop_
 _atom_site_type_symbol
 _atom_site_label
 _atom_site_symmetry_multiplicity
 _atom_site_fract_x
 _atom_site_fract_y
 _atom_site_fract_z
 _atom_site_occupancy
  Cu  Cu0  8  0.08879275  0.32009979  0.03582630  1
  Au  Au1  4  0.00000000  0.00000000  0.00000000  1
  Au  Au2  4  0.00000000  0.42341513  0.75000000  1
# generated using pymatgen
data_ID_39
_symmetry_space_group_name_H-M   C222_1
_cell_length_a   6.94632245
_cell_length_b   9.85888894
_cell_length_c   7.11751340
_cell_angle_alpha   90.00000000
_cell_angle_beta   90.00000000
_cell_angle_gamma   90.00000000
_symmetry_Int_Tables_number   20
_chemical_formula_structural   CuAu
_cell_volume   487.42882338
_cell_formula_units_Z   16
loop_
 _symmetry_equiv_pos_site_id
 _symmetry_equiv_pos_as_xyz
  1  'x, y, z'
  2  '-x, -y, z+1/2'
  3  'x, -y, -z'
  4  '-x, y, -z+1/2'
  5  'x+1/2, y+1/2, z'
  6  '-x+1/2, -y+1/2, z+1/2'
  7  'x+1/2, -y+1/2, -z'
  8  '-x+1/2, y+1/2, -z+1/2'
loop_
 _atom_site_type_symbol
 _atom_site_label
 _atom_site_symmetry_multiplicity
 _atom_site_fract_x
 _atom_site_fract_y
 _atom_site_fract_z
 _atom_site_occupancy
  Cu  Cu0  8  0.07645480  0.27467674  0.08393698  1
  Cu  Cu1  4  0.00000000  0.39942680  0.75000000  1
  Cu  Cu2  4  0.03028769  0.50000000  0.50000000  1
  Au  Au3  8  0.02044934  0.09682777  0.41027310  1
  Au  Au4  4  0.00000000  0.16076699  0.75000000  1
  Au  Au5  4  0.16050367  0.00000000  0.50000000  1
# generated using pymatgen
data_ID_40
_symmetry_space_group_name_H-M   Pnnm
_cell_length_a   4.47098697
_cell_length_b   8.07359652
_cell_length_c   6.58660316
_cell_angle_alpha   90.00000000
_cell_angle_beta   90.00000000
_cell_angle_gamma   90.00000000
_symmetry_Int_Tables_number   58
_chemical_formula_structural   CuAu
_cell_volume   237.75625074
_cell_formula_units_Z   8
loop_
 _symmetry_equiv_pos_site_id
 _symmetry_equiv_pos_as_xyz
  1  'x, y, z'
  2  '-x, -y, -z'
  3  '-x, -y, z'
  4  'x, y, -z'
  5  'x+1/2, -y+1/2, -z+1/2'
  6  '-x+1/2, y+1/2, z+1/2'
  7  '-x+1/2, y+1/2, -z+1/2'
  8  'x+1/2, -y+1/2, z+1/2'
loop_
 _atom_site_type_symbol
 _atom_site_label
 _atom_site_symmetry_multiplicity
 _atom_site_fract_x
 _atom_site_fract_y
 _atom_site_fract_z
 _atom_site_occupancy
  Cu  Cu0  4  0.00000000  0.00000000  0.25610349  1
  Cu  Cu1  4  0.00856293  0.78783792  0.50000000  1
  Au  Au2  8  0.04306344  0.63326358  0.26660265  1
# generated using pymatgen
data_ID_41
_symmetry_space_group_name_H-M   Pna2_1
_cell_length_a   6.13643257
_cell_length_b   7.88428183
_cell_length_c   5.13514597
_cell_angle_alpha   90.00000000
_cell_angle_beta   90.00000000
_cell_angle_gamma   90.00000000
_symmetry_Int_Tables_number   33
_chemical_formula_structural   CuAu
_cell_volume   248.44536553
_cell_formula_units_Z   8
loop_
 _symmetry_equiv_pos_site_id
 _symmetry_equiv_pos_as_xyz
  1  'x, y, z'
  2  '-x, -y, z+1/2'
  3  '-x+1/2, y+1/2, z+1/2'
  4  'x+1/2, -y+1/2, z'
loop_
 _atom_site_type_symbol
 _atom_site_label
 _atom_site_symmetry_multiplicity
 _atom_site_fract_x
 _atom_site_fract_y
 _atom_site_fract_z
 _atom_site_occupancy
  Cu  Cu0  4  0.05139811  0.52563079  0.36518623  1
  Cu  Cu1  4  0.11710973  0.73035653  0.01217039  1
  Au  Au2  4  0.09116666  0.15668435  0.93189639  1
  Au  Au3  4  0.22705322  0.04109929  0.33663343  1
# generated using pymatgen
data_ID_42
_symmetry_space_group_name_H-M   P4bm
_cell_length_a   4.68923549
_cell_length_b   4.68923549
_cell_length_c   9.11529659
_cell_angle_alpha   90.00000000
_cell_angle_beta   90.00000000
_cell_angle_gamma   90.00000000
_symmetry_Int_Tables_number   100
_chemical_formula_structural   CuAu
_cell_volume   200.43561421
_cell_formula_units_Z   8
loop_
 _symmetry_equiv_pos_site_id
 _symmetry_equiv_pos_as_xyz
  1  'x, y, z'
  2  '-y, x, z'
  3  '-x, -y, z'
  4  'y, -x, z'
  5  '-x+1/2, y+1/2, z'
  6  'y+1/2, x+1/2, z'
  7  'x+1/2, -y+1/2, z'
  8  '-y+1/2, -x+1/2, z'
loop_
 _atom_site_type_symbol
 _atom_site_label
 _atom_site_symmetry_multiplicity
 _atom_site_fract_x
 _atom_site_fract_y
 _atom_site_fract_z
 _atom_site_occupancy
  Cu  Cu0  4  0.20773218  0.70773218  0.30077276  1
  Cu  Cu1  2  0.00000000  0.50000000  0.29181452  1
  Cu  Cu2  2  0.00000000  0.50000000  0.52012488  1
  Au  Au3  4  0.11457567  0.61457567  0.86592715  1
  Au  Au4  2  0.00000000  0.00000000  0.99315900  1
  Au  Au5  2  0.00000000  0.50000000  0.72445046  1
# generated using pymatgen
data_ID_43
_symmetry_space_group_name_H-M   P6/mmm
_cell_length_a   4.51569875
_cell_length_b   4.51569875
_cell_length_c   5.84153077
_cell_angle_alpha   90.00000000
_cell_angle_beta   90.00000000
_cell_angle_gamma   120.00000000
_symmetry_Int_Tables_number   191
_chemical_formula_structural   CuAu
_cell_volume   103.15902362
_cell_formula_units_Z   4
loop_
 _symmetry_equiv_pos_site_id
 _symmetry_equiv_pos_as_xyz
  1  'x, y, z'
  2  '-x, -y, -z'
  3  'x-y, x, z'
  4  '-x+y, -x, -z'
  5  '-y, x-y, z'
  6  'y, -x+y, -z'
  7  '-x, -y, z'
  8  'x, y, -z'
  9  '-x+y, -x, z'
  10  'x-y, x, -z'
  11  'y, -x+y, z'
  12  '-y, x-y, -z'
  13  '-y, -x, -z'
  14  'y, x, z'
  15  '-x, -x+y, -z'
  16  'x, x-y, z'
  17  '-x+y, y, -z'
  18  'x-y, -y, z'
  19  'y, x, -z'
  20  '-y, -x, z'
  21  'x, x-y, -z'
  22  '-x, -x+y, z'
  23  'x-y, -y, -z'
  24  '-x+y, y, z'
loop_
 _atom_site_type_symbol
 _atom_site_label
 _atom_site_symmetry_multiplicity
 _atom_site_fract_x
 _atom_site_fract_y
 _atom_site_fract_z
 _atom_site_occupancy
  Cu  Cu0  4  0.33333333  0.66666667  0.12704255  1
  Au  Au1  3  0.00000000  0.50000000  0.50000000  1
  Au  Au2  1  0.00000000  0.00000000  0.00000000  1
# generated using pymatgen
data_ID_44
_symmetry_space_group_name_H-M   P31c
_cell_length_a   6.04056289
_cell_length_b   6.04056289
_cell_length_c   6.03680550
_cell_angle_alpha   90.00000000
_cell_angle_beta   90.00000000
_cell_angle_gamma   120.00000000
_symmetry_Int_Tables_number   159
_chemical_formula_structural   CuAu
_cell_volume   190.76233778
_cell_formula_units_Z   8
loop_
 _symmetry_equiv_pos_site_id
 _symmetry_equiv_pos_as_xyz
  1  'x, y, z'
  2  '-y, x-y, z'
  3  '-x+y, -x, z'
  4  'y, x, z+1/2'
  5  'x-y, -y, z+1/2'
  6  '-x, -x+y, z+1/2'
loop_
 _atom_site_type_symbol
 _atom_site_label
 _atom_site_symmetry_multiplicity
 _atom_site_fract_x
 _atom_site_fract_y
 _atom_site_fract_z
 _atom_site_occupancy
  Cu  Cu0  2  0.00000000  0.00000000  0.24460925  1
  Cu  Cu1  2  0.00000000  0.00000000  0.46900108  1
  Cu  Cu2  2  0.33333333  0.66666667  0.52656676  1
  Cu  Cu3  2  0.33333333  0.66666667  0.77714457  1
  Au  Au4  6  0.13518319  0.35177702  0.01505413  1
  Au  Au5  2  0.33333333  0.66666667  0.09395008  1
# generated using pymatgen
data_ID_45
_symmetry_space_group_name_H-M   Pm-3m
_cell_length_a   3.04162674
_cell_length_b   3.04162674
_cell_length_c   3.04162674
_cell_angle_alpha   90.00000000
_cell_angle_beta   90.00000000
_cell_angle_gamma   90.00000000
_symmetry_Int_Tables_number   221
_chemical_formula_structural   CuAu
_cell_volume   28.13958920
_cell_formula_units_Z   1
loop_
 _symmetry_equiv_pos_site_id
 _symmetry_equiv_pos_as_xyz
  1  'x, y, z'
  2  '-x, -y, -z'
  3  '-y, x, z'
  4  'y, -x, -z'
  5  '-x, -y, z'
  6  'x, y, -z'
  7  'y, -x, z'
  8  '-y, x, -z'
  9  'x, -y, -z'
  10  '-x, y, z'
  11  '-y, -x, -z'
  12  'y, x, z'
  13  '-x, y, -z'
  14  'x, -y, z'
  15  'y, x, -z'
  16  '-y, -x, z'
  17  'z, x, y'
  18  '-z, -x, -y'
  19  'z, -y, x'
  20  '-z, y, -x'
  21  'z, -x, -y'
  22  '-z, x, y'
  23  'z, y, -x'
  24  '-z, -y, x'
  25  '-z, x, -y'
  26  'z, -x, y'
  27  '-z, -y, -x'
  28  'z, y, x'
  29  '-z, -x, y'
  30  'z, x, -y'
  31  '-z, y, x'
  32  'z, -y, -x'
  33  'y, z, x'
  34  '-y, -z, -x'
  35  'x, z, -y'
  36  '-x, -z, y'
  37  '-y, z, -x'
  38  'y, -z, x'
  39  '-x, z, y'
  40  'x, -z, -y'
  41  '-y, -z, x'
  42  'y, z, -x'
  43  '-x, -z, -y'
  44  'x, z, y'
  45  'y, -z, -x'
  46  '-y, z, x'
  47  'x, -z, y'
  48  '-x, z, -y'
loop_
 _atom_site_type_symbol
 _atom_site_label
 _atom_site_symmetry_multiplicity
 _atom_site_fract_x
 _atom_site_fract_y
 _atom_site_fract_z
 _atom_site_occupancy
  Cu  Cu0  1  0.50000000  0.50000000  0.50000000  1
  Au  Au1  1  0.00000000  0.00000000  0.00000000  1
# generated using pymatgen
data_ID_46
_symmetry_space_group_name_H-M   P-6c2
_cell_length_a   5.04548234
_cell_length_b   5.04548234
_cell_length_c   11.76982617
_cell_angle_alpha   90.00000000
_cell_angle_beta   90.00000000
_cell_angle_gamma   120.00000000
_symmetry_Int_Tables_number   188
_chemical_formula_structural   CuAu
_cell_volume   259.48129765
_cell_formula_units_Z   8
loop_
 _symmetry_equiv_pos_site_id
 _symmetry_equiv_pos_as_xyz
  1  'x, y, z'
  2  '-x+y, -x, -z+1/2'
  3  '-y, x-y, z'
  4  'x, y, -z+1/2'
  5  '-x+y, -x, z'
  6  '-y, x-y, -z+1/2'
  7  '-y, -x, -z'
  8  'x, x-y, z+1/2'
  9  '-x+y, y, -z'
  10  '-y, -x, z+1/2'
  11  'x, x-y, -z'
  12  '-x+y, y, z+1/2'
loop_
 _atom_site_type_symbol
 _atom_site_label
 _atom_site_symmetry_multiplicity
 _atom_site_fract_x
 _atom_site_fract_y
 _atom_site_fract_z
 _atom_site_occupancy
  Cu  Cu0  2  0.00000000  0.00000000  0.25000000  1
  Cu  Cu1  2  0.33333333  0.66666667  0.25000000  1
  Cu  Cu2  2  0.66666667  0.33333333  0.00000000  1
  Cu  Cu3  2  0.66666667  0.33333333  0.25000000  1
  Au  Au4  6  0.29879282  0.03033736  0.25000000  1
  Au  Au5  2  0.33333333  0.66666667  0.00000000  1
# generated using pymatgen
data_ID_47
_symmetry_space_group_name_H-M   I4_1/acd
_cell_length_a   7.79868125
_cell_length_b   7.79868125
_cell_length_c   6.32688718
_cell_angle_alpha   90.00000000
_cell_angle_beta   90.00000000
_cell_angle_gamma   90.00000000
_symmetry_Int_Tables_number   142
_chemical_formula_structural   CuAu
_cell_volume   384.79766730
_cell_formula_units_Z   16
loop_
 _symmetry_equiv_pos_site_id
 _symmetry_equiv_pos_as_xyz
  1  'x, y, z'
  2  '-y, x+1/2, z+1/4'
  3  '-x+1/2, -y+1/2, z+1/2'
  4  'y+1/2, -x, z+3/4'
  5  'x+1/2, -y, -z+1/4'
  6  '-y+1/2, -x+1/2, -z'
  7  '-x, y+1/2, -z+3/4'
  8  'y, x, -z+1/2'
  9  '-x, -y+1/2, -z+1/4'
  10  'y, -x, -z'
  11  'x+1/2, y, -z+3/4'
  12  '-y+1/2, x+1/2, -z+1/2'
  13  '-x+1/2, y+1/2, z'
  14  'y+1/2, x, z+1/4'
  15  'x, -y, z+1/2'
  16  '-y, -x+1/2, z+3/4'
  17  'x+1/2, y+1/2, z+1/2'
  18  '-y+1/2, x, z+3/4'
  19  '-x, -y, z'
  20  'y, -x+1/2, z+1/4'
  21  'x, -y+1/2, -z+3/4'
  22  '-y, -x, -z+1/2'
  23  '-x+1/2, y, -z+1/4'
  24  'y+1/2, x+1/2, -z'
  25  '-x+1/2, -y, -z+3/4'
  26  'y+1/2, -x+1/2, -z+1/2'
  27  'x, y+1/2, -z+1/4'
  28  '-y, x, -z'
  29  '-x, y, z+1/2'
  30  'y, x+1/2, z+3/4'
  31  'x+1/2, -y+1/2, z'
  32  '-y+1/2, -x, z+1/4'
loop_
 _atom_site_type_symbol
 _atom_site_label
 _atom_site_symmetry_multiplicity
 _atom_site_fract_x
 _atom_site_fract_y
 _atom_site_fract_z
 _atom_site_occupancy
  Cu  Cu0  8  0.00000000  0.00000000  0.00000000  1
  Cu  Cu1  8  0.00000000  0.00000000  0.25000000  1
  Au  Au2  16  0.18958641  0.25000000  0.37500000  1
# generated using pymatgen
data_ID_48
_symmetry_space_group_name_H-M   P4bm
_cell_length_a   7.88985533
_cell_length_b   7.88985533
_cell_length_c   3.99956449
_cell_angle_alpha   90.00000000
_cell_angle_beta   90.00000000
_cell_angle_gamma   90.00000000
_symmetry_Int_Tables_number   100
_chemical_formula_structural   CuAu
_cell_volume   248.97215825
_cell_formula_units_Z   8
loop_
 _symmetry_equiv_pos_site_id
 _symmetry_equiv_pos_as_xyz
  1  'x, y, z'
  2  '-y, x, z'
  3  '-x, -y, z'
  4  'y, -x, z'
  5  '-x+1/2, y+1/2, z'
  6  'y+1/2, x+1/2, z'
  7  'x+1/2, -y+1/2, z'
  8  '-y+1/2, -x+1/2, z'
loop_
 _atom_site_type_symbol
 _atom_site_label
 _atom_site_symmetry_multiplicity
 _atom_site_fract_x
 _atom_site_fract_y
 _atom_site_fract_z
 _atom_site_occupancy
  Cu  Cu0  8  0.06979403  0.70904980  0.89983083  1
  Au  Au1  8  0.09215740  0.12372846  0.30157704  1
# generated using pymatgen
data_ID_49
_symmetry_space_group_name_H-M   Pnn2
_cell_length_a   5.49923698
_cell_length_b   9.50538720
_cell_length_c   4.73921712
_cell_angle_alpha   90.00000000
_cell_angle_beta   90.00000000
_cell_angle_gamma   90.00000000
_symmetry_Int_Tables_number   34
_chemical_formula_structural   CuAu
_cell_volume   247.73014295
_cell_formula_units_Z   8
loop_
 _symmetry_equiv_pos_site_id
 _symmetry_equiv_pos_as_xyz
  1  'x, y, z'
  2  '-x, -y, z'
  3  '-x+1/2, y+1/2, z+1/2'
  4  'x+1/2, -y+1/2, z+1/2'
loop_
 _atom_site_type_symbol
 _atom_site_label
 _atom_site_symmetry_multiplicity
 _atom_site_fract_x
 _atom_site_fract_y
 _atom_site_fract_z
 _atom_site_occupancy
  Cu  Cu0  4  0.11740479  0.61390930  0.41787576  1
  Cu  Cu1  2  0.00000000  0.00000000  0.16373208  1
  Cu  Cu2  2  0.00000000  0.50000000  0.63925225  1
  Au  Au3  4  0.04202976  0.91771023  0.70032251  1
  Au  Au4  4  0.18188639  0.71647147  0.07497415  1
# generated using pymatgen
data_ID_50
_symmetry_space_group_name_H-M   P4/mmm
_cell_length_a   8.15390806
_cell_length_b   8.15390806
_cell_length_c   3.24433809
_cell_angle_alpha   90.00000000
_cell_angle_beta   90.00000000
_cell_angle_gamma   90.00000000
_symmetry_Int_Tables_number   123
_chemical_formula_structural   CuAu
_cell_volume   215.70376517
_cell_formula_units_Z   8
loop_
 _symmetry_equiv_pos_site_id
 _symmetry_equiv_pos_as_xyz
  1  'x, y, z'
  2  '-x, -y, -z'
  3  '-y, x, z'
  4  'y, -x, -z'
  5  '-x, -y, z'
  6  'x, y, -z'
  7  'y, -x, z'
  8  '-y, x, -z'
  9  'x, -y, -z'
  10  '-x, y, z'
  11  '-y, -x, -z'
  12  'y, x, z'
  13  '-x, y, -z'
  14  'x, -y, z'
  15  'y, x, -z'
  16  '-y, -x, z'
loop_
 _atom_site_type_symbol
 _atom_site_label
 _atom_site_symmetry_multiplicity
 _atom_site_fract_x
 _atom_site_fract_y
 _atom_site_fract_z
 _atom_site_occupancy
  Cu  Cu0  4  0.00000000  0.50000000  0.24996597  1
  Cu  Cu1  4  0.29191489  0.50000000  0.00000000  1
  Au  Au2  4  0.21430057  0.50000000  0.50000000  1
  Au  Au3  2  0.00000000  0.00000000  0.21695498  1
  Au  Au4  1  0.50000000  0.50000000  0.00000000  1
  Au  Au5  1  0.50000000  0.50000000  0.50000000  1
# generated using pymatgen
data_ID_51
_symmetry_space_group_name_H-M   P6/mmm
_cell_length_a   5.23437835
_cell_length_b   5.23437835
_cell_length_c   5.03738052
_cell_angle_alpha   90.00000000
_cell_angle_beta   90.00000000
_cell_angle_gamma   120.00000000
_symmetry_Int_Tables_number   191
_chemical_formula_structural   CuAu
_cell_volume   119.52688813
_cell_formula_units_Z   4
loop_
 _symmetry_equiv_pos_site_id
 _symmetry_equiv_pos_as_xyz
  1  'x, y, z'
  2  '-x, -y, -z'
  3  'x-y, x, z'
  4  '-x+y, -x, -z'
  5  '-y, x-y, z'
  6  'y, -x+y, -z'
  7  '-x, -y, z'
  8  'x, y, -z'
  9  '-x+y, -x, z'
  10  'x-y, x, -z'
  11  'y, -x+y, z'
  12  '-y, x-y, -z'
  13  '-y, -x, -z'
  14  'y, x, z'
  15  '-x, -x+y, -z'
  16  'x, x-y, z'
  17  '-x+y, y, -z'
  18  'x-y, -y, z'
  19  'y, x, -z'
  20  '-y, -x, z'
  21  'x, x-y, -z'
  22  '-x, -x+y, z'
  23  'x-y, -y, -z'
  24  '-x+y, y, z'
loop_
 _atom_site_type_symbol
 _atom_site_label
 _atom_site_symmetry_multiplicity
 _atom_site_fract_x
 _atom_site_fract_y
 _atom_site_fract_z
 _atom_site_occupancy
  Cu  Cu0  3  0.00000000  0.50000000  0.00000000  1
  Cu  Cu1  1  0.00000000  0.00000000  0.50000000  1
  Au  Au2  4  0.33333333  0.66666667  0.66929296  1
# generated using pymatgen
data_ID_52
_symmetry_space_group_name_H-M   I4/mmm
_cell_length_a   3.77457778
_cell_length_b   3.77457778
_cell_length_c   13.88311557
_cell_angle_alpha   90.00000000
_cell_angle_beta   90.00000000
_cell_angle_gamma   90.00000000
_symmetry_Int_Tables_number   139
_chemical_formula_structural   CuAu
_cell_volume   197.79882037
_cell_formula_units_Z   8
loop_
 _symmetry_equiv_pos_site_id
 _symmetry_equiv_pos_as_xyz
  1  'x, y, z'
  2  '-x, -y, -z'
  3  '-y, x, z'
  4  'y, -x, -z'
  5  '-x, -y, z'
  6  'x, y, -z'
  7  'y, -x, z'
  8  '-y, x, -z'
  9  'x, -y, -z'
  10  '-x, y, z'
  11  '-y, -x, -z'
  12  'y, x, z'
  13  '-x, y, -z'
  14  'x, -y, z'
  15  'y, x, -z'
  16  '-y, -x, z'
  17  'x+1/2, y+1/2, z+1/2'
  18  '-x+1/2, -y+1/2, -z+1/2'
  19  '-y+1/2, x+1/2, z+1/2'
  20  'y+1/2, -x+1/2, -z+1/2'
  21  '-x+1/2, -y+1/2, z+1/2'
  22  'x+1/2, y+1/2, -z+1/2'
  23  'y+1/2, -x+1/2, z+1/2'
  24  '-y+1/2, x+1/2, -z+1/2'
  25  'x+1/2, -y+1/2, -z+1/2'
  26  '-x+1/2, y+1/2, z+1/2'
  27  '-y+1/2, -x+1/2, -z+1/2'
  28  'y+1/2, x+1/2, z+1/2'
  29  '-x+1/2, y+1/2, -z+1/2'
  30  'x+1/2, -y+1/2, z+1/2'
  31  'y+1/2, x+1/2, -z+1/2'
  32  '-y+1/2, -x+1/2, z+1/2'
loop_
 _atom_site_type_symbol
 _atom_site_label
 _atom_site_symmetry_multiplicity
 _atom_site_fract_x
 _atom_site_fract_y
 _atom_site_fract_z
 _atom_site_occupancy
  Cu  Cu0  8  0.22170001  0.22170001  0.50000000  1
  Au  Au1  8  0.25000000  0.25000000  0.25000000  1
# generated using pymatgen
data_ID_53
_symmetry_space_group_name_H-M   Pnma
_cell_length_a   4.76506016
_cell_length_b   9.22869677
_cell_length_c   5.38603622
_cell_angle_alpha   90.00000000
_cell_angle_beta   90.00000000
_cell_angle_gamma   90.00000000
_symmetry_Int_Tables_number   62
_chemical_formula_structural   CuAu
_cell_volume   236.85253282
_cell_formula_units_Z   8
loop_
 _symmetry_equiv_pos_site_id
 _symmetry_equiv_pos_as_xyz
  1  'x, y, z'
  2  '-x, -y, -z'
  3  '-x+1/2, -y, z+1/2'
  4  'x+1/2, y, -z+1/2'
  5  'x+1/2, -y+1/2, -z+1/2'
  6  '-x+1/2, y+1/2, z+1/2'
  7  '-x, y+1/2, -z'
  8  'x, -y+1/2, z'
loop_
 _atom_site_type_symbol
 _atom_site_label
 _atom_site_symmetry_multiplicity
 _atom_site_fract_x
 _atom_site_fract_y
 _atom_site_fract_z
 _atom_site_occupancy
  Cu  Cu0  4  0.00000000  0.00000000  0.00000000  1
  Cu  Cu1  4  0.13223473  0.25000000  0.08897950  1
  Au  Au2  8  0.10339513  0.55307987  0.72592395  1
# generated using pymatgen
data_ID_54
_symmetry_space_group_name_H-M   P4/mnc
_cell_length_a   6.59101145
_cell_length_b   6.59101145
_cell_length_c   5.46308028
_cell_angle_alpha   90.00000000
_cell_angle_beta   90.00000000
_cell_angle_gamma   90.00000000
_symmetry_Int_Tables_number   128
_chemical_formula_structural   CuAu
_cell_volume   237.32403060
_cell_formula_units_Z   8
loop_
 _symmetry_equiv_pos_site_id
 _symmetry_equiv_pos_as_xyz
  1  'x, y, z'
  2  '-x, -y, -z'
  3  '-y, x, z'
  4  'y, -x, -z'
  5  '-x, -y, z'
  6  'x, y, -z'
  7  'y, -x, z'
  8  '-y, x, -z'
  9  'x+1/2, -y+1/2, -z+1/2'
  10  '-x+1/2, y+1/2, z+1/2'
  11  '-y+1/2, -x+1/2, -z+1/2'
  12  'y+1/2, x+1/2, z+1/2'
  13  '-x+1/2, y+1/2, -z+1/2'
  14  'x+1/2, -y+1/2, z+1/2'
  15  'y+1/2, x+1/2, -z+1/2'
  16  '-y+1/2, -x+1/2, z+1/2'
loop_
 _atom_site_type_symbol
 _atom_site_label
 _atom_site_symmetry_multiplicity
 _atom_site_fract_x
 _atom_site_fract_y
 _atom_site_fract_z
 _atom_site_occupancy
  Cu  Cu0  4  0.00000000  0.00000000  0.36985247  1
  Cu  Cu1  4  0.00000000  0.50000000  0.25000000  1
  Au  Au2  8  0.18558969  0.68558969  0.25000000  1
# generated using pymatgen
data_ID_55
_symmetry_space_group_name_H-M   Pccn
_cell_length_a   5.99595980
_cell_length_b   6.24088021
_cell_length_c   6.30802932
_cell_angle_alpha   90.00000000
_cell_angle_beta   90.00000000
_cell_angle_gamma   90.00000000
_symmetry_Int_Tables_number   56
_chemical_formula_structural   CuAu
_cell_volume   236.04687886
_cell_formula_units_Z   8
loop_
 _symmetry_equiv_pos_site_id
 _symmetry_equiv_pos_as_xyz
  1  'x, y, z'
  2  '-x, -y, -z'
  3  '-x+1/2, -y+1/2, z'
  4  'x+1/2, y+1/2, -z'
  5  'x+1/2, -y, -z+1/2'
  6  '-x+1/2, y, z+1/2'
  7  '-x, y+1/2, -z+1/2'
  8  'x, -y+1/2, z+1/2'
loop_
 _atom_site_type_symbol
 _atom_site_label
 _atom_site_symmetry_multiplicity
 _atom_site_fract_x
 _atom_site_fract_y
 _atom_site_fract_z
 _atom_site_occupancy
  Cu  Cu0  4  0.00000000  0.00000000  0.00000000  1
  Cu  Cu1  4  0.25000000  0.75000000  0.07024706  1
  Au  Au2  8  0.07172748  0.20831497  0.14599446  1
# generated using pymatgen
data_ID_56
_symmetry_space_group_name_H-M   R-3c
_cell_length_a   5.37252263
_cell_length_b   5.37252263
_cell_length_c   24.06023262
_cell_angle_alpha   90.00000000
_cell_angle_beta   90.00000000
_cell_angle_gamma   120.00000000
_symmetry_Int_Tables_number   167
_chemical_formula_structural   CuAu
_cell_volume   601.43259479
_cell_formula_units_Z   24
loop_
 _symmetry_equiv_pos_site_id
 _symmetry_equiv_pos_as_xyz
  1  'x, y, z'
  2  '-x, -y, -z'
  3  '-y, x-y, z'
  4  'y, -x+y, -z'
  5  '-x+y, -x, z'
  6  'x-y, x, -z'
  7  'y, x, -z+1/2'
  8  '-y, -x, z+1/2'
  9  'x-y, -y, -z+1/2'
  10  '-x+y, y, z+1/2'
  11  '-x, -x+y, -z+1/2'
  12  'x, x-y, z+1/2'
  13  'x+2/3, y+1/3, z+1/3'
  14  '-x+2/3, -y+1/3, -z+1/3'
  15  '-y+2/3, x-y+1/3, z+1/3'
  16  'y+2/3, -x+y+1/3, -z+1/3'
  17  '-x+y+2/3, -x+1/3, z+1/3'
  18  'x-y+2/3, x+1/3, -z+1/3'
  19  'y+2/3, x+1/3, -z+5/6'
  20  '-y+2/3, -x+1/3, z+5/6'
  21  'x-y+2/3, -y+1/3, -z+5/6'
  22  '-x+y+2/3, y+1/3, z+5/6'
  23  '-x+2/3, -x+y+1/3, -z+5/6'
  24  'x+2/3, x-y+1/3, z+5/6'
  25  'x+1/3, y+2/3, z+2/3'
  26  '-x+1/3, -y+2/3, -z+2/3'
  27  '-y+1/3, x-y+2/3, z+2/3'
  28  'y+1/3, -x+y+2/3, -z+2/3'
  29  '-x+y+1/3, -x+2/3, z+2/3'
  30  'x-y+1/3, x+2/3, -z+2/3'
  31  'y+1/3, x+2/3, -z+1/6'
  32  '-y+1/3, -x+2/3, z+1/6'
  33  'x-y+1/3, -y+2/3, -z+1/6'
  34  '-x+y+1/3, y+2/3, z+1/6'
  35  '-x+1/3, -x+y+2/3, -z+1/6'
  36  'x+1/3, x-y+2/3, z+1/6'
loop_
 _atom_site_type_symbol
 _atom_site_label
 _atom_site_symmetry_multiplicity
 _atom_site_fract_x
 _atom_site_fract_y
 _atom_site_fract_z
 _atom_site_occupancy
  Cu  Cu0  18  0.00000000  0.50000000  0.00000000  1
  Cu  Cu1  6  0.00000000  0.00000000  0.25000000  1
  Au  Au2  18  0.00000000  0.39953346  0.75000000  1
  Au  Au3  6  0.00000000  0.00000000  0.00000000  1
# generated using pymatgen
data_ID_57
_symmetry_space_group_name_H-M   P4_2/mcm
_cell_length_a   5.48797979
_cell_length_b   5.48797979
_cell_length_c   8.76416047
_cell_angle_alpha   90.00000000
_cell_angle_beta   90.00000000
_cell_angle_gamma   90.00000000
_symmetry_Int_Tables_number   132
_chemical_formula_structural   CuAu
_cell_volume   263.95830326
_cell_formula_units_Z   8
loop_
 _symmetry_equiv_pos_site_id
 _symmetry_equiv_pos_as_xyz
  1  'x, y, z'
  2  '-x, -y, -z'
  3  '-y, x, z+1/2'
  4  'y, -x, -z+1/2'
  5  '-x, -y, z'
  6  'x, y, -z'
  7  'y, -x, z+1/2'
  8  '-y, x, -z+1/2'
  9  'x, -y, -z+1/2'
  10  '-x, y, z+1/2'
  11  '-y, -x, -z'
  12  'y, x, z'
  13  '-x, y, -z+1/2'
  14  'x, -y, z+1/2'
  15  'y, x, -z'
  16  '-y, -x, z'
loop_
 _atom_site_type_symbol
 _atom_site_label
 _atom_site_symmetry_multiplicity
 _atom_site_fract_x
 _atom_site_fract_y
 _atom_site_fract_z
 _atom_site_occupancy
  Cu  Cu0  4  0.00000000  0.50000000  0.25000000  1
  Cu  Cu1  2  0.00000000  0.00000000  0.00000000  1
  Cu  Cu2  2  0.00000000  0.00000000  0.25000000  1
  Au  Au3  8  0.23903059  0.44445676  0.50000000  1
# generated using pymatgen
data_ID_58
_symmetry_space_group_name_H-M   Pa-3
_cell_length_a   5.88162958
_cell_length_b   5.88162958
_cell_length_c   5.88162958
_cell_angle_alpha   90.00000000
_cell_angle_beta   90.00000000
_cell_angle_gamma   90.00000000
_symmetry_Int_Tables_number   205
_chemical_formula_structural   CuAu
_cell_volume   203.46654443
_cell_formula_units_Z   8
loop_
 _symmetry_equiv_pos_site_id
 _symmetry_equiv_pos_as_xyz
  1  'x, y, z'
  2  '-x, -y, -z'
  3  '-x+1/2, -y, z+1/2'
  4  'x+1/2, y, -z+1/2'
  5  'x+1/2, -y+1/2, -z'
  6  '-x+1/2, y+1/2, z'
  7  '-x, y+1/2, -z+1/2'
  8  'x, -y+1/2, z+1/2'
  9  'z, x, y'
  10  '-z, -x, -y'
  11  'z+1/2, -x+1/2, -y'
  12  '-z+1/2, x+1/2, y'
  13  '-z, x+1/2, -y+1/2'
  14  'z, -x+1/2, y+1/2'
  15  '-z+1/2, -x, y+1/2'
  16  'z+1/2, x, -y+1/2'
  17  'y, z, x'
  18  '-y, -z, -x'
  19  '-y, z+1/2, -x+1/2'
  20  'y, -z+1/2, x+1/2'
  21  '-y+1/2, -z, x+1/2'
  22  'y+1/2, z, -x+1/2'
  23  'y+1/2, -z+1/2, -x'
  24  '-y+1/2, z+1/2, x'
loop_
 _atom_site_type_symbol
 _atom_site_label
 _atom_site_symmetry_multiplicity
 _atom_site_fract_x
 _atom_site_fract_y
 _atom_site_fract_z
 _atom_site_occupancy
  Cu  Cu0  8  0.20627967  0.20627967  0.20627967  1
  Au  Au1  4  0.00000000  0.00000000  0.00000000  1
  Au  Au2  4  0.00000000  0.00000000  0.50000000  1
# generated using pymatgen
data_ID_59
_symmetry_space_group_name_H-M   R-3c
_cell_length_a   7.01966301
_cell_length_b   7.01966301
_cell_length_c   14.06035810
_cell_angle_alpha   90.00000000
_cell_angle_beta   90.00000000
_cell_angle_gamma   120.00000000
_symmetry_Int_Tables_number   167
_chemical_formula_structural   CuAu
_cell_volume   600.01145403
_cell_formula_units_Z   24
loop_
 _symmetry_equiv_pos_site_id
 _symmetry_equiv_pos_as_xyz
  1  'x, y, z'
  2  '-x, -y, -z'
  3  '-y, x-y, z'
  4  'y, -x+y, -z'
  5  '-x+y, -x, z'
  6  'x-y, x, -z'
  7  'y, x, -z+1/2'
  8  '-y, -x, z+1/2'
  9  'x-y, -y, -z+1/2'
  10  '-x+y, y, z+1/2'
  11  '-x, -x+y, -z+1/2'
  12  'x, x-y, z+1/2'
  13  'x+2/3, y+1/3, z+1/3'
  14  '-x+2/3, -y+1/3, -z+1/3'
  15  '-y+2/3, x-y+1/3, z+1/3'
  16  'y+2/3, -x+y+1/3, -z+1/3'
  17  '-x+y+2/3, -x+1/3, z+1/3'
  18  'x-y+2/3, x+1/3, -z+1/3'
  19  'y+2/3, x+1/3, -z+5/6'
  20  '-y+2/3, -x+1/3, z+5/6'
  21  'x-y+2/3, -y+1/3, -z+5/6'
  22  '-x+y+2/3, y+1/3, z+5/6'
  23  '-x+2/3, -x+y+1/3, -z+5/6'
  24  'x+2/3, x-y+1/3, z+5/6'
  25  'x+1/3, y+2/3, z+2/3'
  26  '-x+1/3, -y+2/3, -z+2/3'
  27  '-y+1/3, x-y+2/3, z+2/3'
  28  'y+1/3, -x+y+2/3, -z+2/3'
  29  '-x+y+1/3, -x+2/3, z+2/3'
  30  'x-y+1/3, x+2/3, -z+2/3'
  31  'y+1/3, x+2/3, -z+1/6'
  32  '-y+1/3, -x+2/3, z+1/6'
  33  'x-y+1/3, -y+2/3, -z+1/6'
  34  '-x+y+1/3, y+2/3, z+1/6'
  35  '-x+1/3, -x+y+2/3, -z+1/6'
  36  'x+1/3, x-y+2/3, z+1/6'
loop_
 _atom_site_type_symbol
 _atom_site_label
 _atom_site_symmetry_multiplicity
 _atom_site_fract_x
 _atom_site_fract_y
 _atom_site_fract_z
 _atom_site_occupancy
  Cu  Cu0  18  0.00000000  0.46651459  0.75000000  1
  Cu  Cu1  6  0.00000000  0.00000000  0.00000000  1
  Au  Au2  18  0.00000000  0.50000000  0.00000000  1
  Au  Au3  6  0.00000000  0.00000000  0.25000000  1
# generated using pymatgen
data_ID_60
_symmetry_space_group_name_H-M   I-43d
_cell_length_a   7.16929176
_cell_length_b   7.16929176
_cell_length_c   7.16929176
_cell_angle_alpha   90.00000000
_cell_angle_beta   90.00000000
_cell_angle_gamma   90.00000000
_symmetry_Int_Tables_number   220
_chemical_formula_structural   CuAu
_cell_volume   368.49259483
_cell_formula_units_Z   16
loop_
 _symmetry_equiv_pos_site_id
 _symmetry_equiv_pos_as_xyz
  1  'x, y, z'
  2  'y+1/4, -x+3/4, -z+1/4'
  3  '-x, -y+1/2, z'
  4  '-y+3/4, x+3/4, -z+1/4'
  5  'x, -y, -z+1/2'
  6  'y+1/4, x+1/4, z+1/4'
  7  '-x, y+1/2, -z+1/2'
  8  '-y+3/4, -x+1/4, z+1/4'
  9  'z, x, y'
  10  '-z+1/4, y+1/4, -x+3/4'
  11  'z, -x, -y+1/2'
  12  '-z+1/4, -y+3/4, x+3/4'
  13  '-z+1/2, x, -y'
  14  'z+1/4, y+1/4, x+1/4'
  15  '-z+1/2, -x, y+1/2'
  16  'z+1/4, -y+3/4, -x+1/4'
  17  'y, z, x'
  18  '-x+3/4, -z+1/4, y+1/4'
  19  '-y+1/2, z, -x'
  20  'x+3/4, -z+1/4, -y+3/4'
  21  '-y, -z+1/2, x'
  22  'x+1/4, z+1/4, y+1/4'
  23  'y+1/2, -z+1/2, -x'
  24  '-x+1/4, z+1/4, -y+3/4'
  25  'x+1/2, y+1/2, z+1/2'
  26  'y+3/4, -x+1/4, -z+3/4'
  27  '-x+1/2, -y, z+1/2'
  28  '-y+1/4, x+1/4, -z+3/4'
  29  'x+1/2, -y+1/2, -z'
  30  'y+3/4, x+3/4, z+3/4'
  31  '-x+1/2, y, -z'
  32  '-y+1/4, -x+3/4, z+3/4'
  33  'z+1/2, x+1/2, y+1/2'
  34  '-z+3/4, y+3/4, -x+1/4'
  35  'z+1/2, -x+1/2, -y'
  36  '-z+3/4, -y+1/4, x+1/4'
  37  '-z, x+1/2, -y+1/2'
  38  'z+3/4, y+3/4, x+3/4'
  39  '-z, -x+1/2, y'
  40  'z+3/4, -y+1/4, -x+3/4'
  41  'y+1/2, z+1/2, x+1/2'
  42  '-x+1/4, -z+3/4, y+3/4'
  43  '-y, z+1/2, -x+1/2'
  44  'x+1/4, -z+3/4, -y+1/4'
  45  '-y+1/2, -z, x+1/2'
  46  'x+3/4, z+3/4, y+3/4'
  47  'y, -z, -x+1/2'
  48  '-x+3/4, z+3/4, -y+1/4'
loop_
 _atom_site_type_symbol
 _atom_site_label
 _atom_site_symmetry_multiplicity
 _atom_site_fract_x
 _atom_site_fract_y
 _atom_site_fract_z
 _atom_site_occupancy
  Cu  Cu0  16  0.02309612  0.47690388  0.52309612  1
  Au  Au1  16  0.11323159  0.11323159  0.11323159  1
# generated using pymatgen
data_ID_61
_symmetry_space_group_name_H-M   Pmmn
_cell_length_a   4.20040463
_cell_length_b   4.58295948
_cell_length_c   11.18710090
_cell_angle_alpha   90.00000000
_cell_angle_beta   90.00000000
_cell_angle_gamma   90.00000000
_symmetry_Int_Tables_number   59
_chemical_formula_structural   CuAu
_cell_volume   215.35487184
_cell_formula_units_Z   8
loop_
 _symmetry_equiv_pos_site_id
 _symmetry_equiv_pos_as_xyz
  1  'x, y, z'
  2  '-x, -y, z'
  3  'x+1/2, -y+1/2, -z'
  4  '-x+1/2, y+1/2, -z'
  5  '-x+1/2, -y+1/2, -z'
  6  'x+1/2, y+1/2, -z'
  7  '-x, y, z'
  8  'x, -y, z'
loop_
 _atom_site_type_symbol
 _atom_site_label
 _atom_site_symmetry_multiplicity
 _atom_site_fract_x
 _atom_site_fract_y
 _atom_site_fract_z
 _atom_site_occupancy
  Cu  Cu0  4  0.25000000  0.25000000  0.50000000  1
  Cu  Cu1  2  0.00000000  0.00000000  0.19299784  1
  Cu  Cu2  2  0.00000000  0.50000000  0.58570753  1
  Au  Au3  4  0.25000000  0.25000000  0.00000000  1
  Au  Au4  2  0.00000000  0.00000000  0.56365244  1
  Au  Au5  2  0.00000000  0.50000000  0.27087921  1
# generated using pymatgen
data_ID_62
_symmetry_space_group_name_H-M   Pccm
_cell_length_a   5.89841484
_cell_length_b   7.22974582
_cell_length_c   4.76002179
_cell_angle_alpha   90.00000000
_cell_angle_beta   90.00000000
_cell_angle_gamma   90.00000000
_symmetry_Int_Tables_number   49
_chemical_formula_structural   CuAu
_cell_volume   202.98655985
_cell_formula_units_Z   8
loop_
 _symmetry_equiv_pos_site_id
 _symmetry_equiv_pos_as_xyz
  1  'x, y, z'
  2  '-x, -y, -z'
  3  '-x, -y, z'
  4  'x, y, -z'
  5  'x, -y, -z+1/2'
  6  '-x, y, z+1/2'
  7  '-x, y, -z+1/2'
  8  'x, -y, z+1/2'
loop_
 _atom_site_type_symbol
 _atom_site_label
 _atom_site_symmetry_multiplicity
 _atom_site_fract_x
 _atom_site_fract_y
 _atom_site_fract_z
 _atom_site_occupancy
  Cu  Cu0  4  0.00000000  0.29903975  0.25000000  1
  Cu  Cu1  2  0.00000000  0.00000000  0.00000000  1
  Cu  Cu2  2  0.50000000  0.50000000  0.25000000  1
  Au  Au3  4  0.24452191  0.01622488  0.00000000  1
  Au  Au4  2  0.00000000  0.50000000  0.25000000  1
  Au  Au5  2  0.50000000  0.00000000  0.00000000  1
# generated using pymatgen
data_ID_63
_symmetry_space_group_name_H-M   P4_2/n
_cell_length_a   3.17737694
_cell_length_b   3.17737694
_cell_length_c   18.17080756
_cell_angle_alpha   90.00000000
_cell_angle_beta   90.00000000
_cell_angle_gamma   90.00000000
_symmetry_Int_Tables_number   86
_chemical_formula_structural   CuAu
_cell_volume   183.44746243
_cell_formula_units_Z   8
loop_
 _symmetry_equiv_pos_site_id
 _symmetry_equiv_pos_as_xyz
  1  'x, y, z'
  2  '-y+1/2, x+1/2, z+1/2'
  3  '-x, -y, z'
  4  'y+1/2, -x+1/2, z+1/2'
  5  '-x+1/2, -y+1/2, -z+1/2'
  6  'y, -x, -z'
  7  'x+1/2, y+1/2, -z+1/2'
  8  '-y, x, -z'
loop_
 _atom_site_type_symbol
 _atom_site_label
 _atom_site_symmetry_multiplicity
 _atom_site_fract_x
 _atom_site_fract_y
 _atom_site_fract_z
 _atom_site_occupancy
  Cu  Cu0  4  0.00000000  0.00000000  0.17718076  1
  Cu  Cu1  4  0.00000000  0.50000000  0.12238261  1
  Au  Au2  4  0.00000000  0.00000000  0.06005232  1
  Au  Au3  4  0.25000000  0.25000000  0.75000000  1
# generated using pymatgen
data_ID_64
_symmetry_space_group_name_H-M   P6_3/mmc
_cell_length_a   5.52840255
_cell_length_b   5.52840255
_cell_length_c   7.24250615
_cell_angle_alpha   90.00000000
_cell_angle_beta   90.00000000
_cell_angle_gamma   120.00000000
_symmetry_Int_Tables_number   194
_chemical_formula_structural   CuAu
_cell_volume   191.69854723
_cell_formula_units_Z   8
loop_
 _symmetry_equiv_pos_site_id
 _symmetry_equiv_pos_as_xyz
  1  'x, y, z'
  2  '-x, -y, -z'
  3  'x-y, x, z+1/2'
  4  '-x+y, -x, -z+1/2'
  5  '-y, x-y, z'
  6  'y, -x+y, -z'
  7  '-x, -y, z+1/2'
  8  'x, y, -z+1/2'
  9  '-x+y, -x, z'
  10  'x-y, x, -z'
  11  'y, -x+y, z+1/2'
  12  '-y, x-y, -z+1/2'
  13  '-y, -x, -z+1/2'
  14  'y, x, z+1/2'
  15  '-x, -x+y, -z'
  16  'x, x-y, z'
  17  '-x+y, y, -z+1/2'
  18  'x-y, -y, z+1/2'
  19  'y, x, -z'
  20  '-y, -x, z'
  21  'x, x-y, -z+1/2'
  22  '-x, -x+y, z+1/2'
  23  'x-y, -y, -z'
  24  '-x+y, y, z'
loop_
 _atom_site_type_symbol
 _atom_site_label
 _atom_site_symmetry_multiplicity
 _atom_site_fract_x
 _atom_site_fract_y
 _atom_site_fract_z
 _atom_site_occupancy
  Cu  Cu0  4  0.33333333  0.66666667  0.35666654  1
  Cu  Cu1  2  0.00000000  0.00000000  0.25000000  1
  Cu  Cu2  2  0.33333333  0.66666667  0.75000000  1
  Au  Au3  6  0.00000000  0.50000000  0.00000000  1
  Au  Au4  2  0.00000000  0.00000000  0.00000000  1
# generated using pymatgen
data_ID_65
_symmetry_space_group_name_H-M   P4_2bc
_cell_length_a   6.34183353
_cell_length_b   6.34183353
_cell_length_c   6.18294660
_cell_angle_alpha   90.00000000
_cell_angle_beta   90.00000000
_cell_angle_gamma   90.00000000
_symmetry_Int_Tables_number   106
_chemical_formula_structural   CuAu
_cell_volume   248.67101711
_cell_formula_units_Z   8
loop_
 _symmetry_equiv_pos_site_id
 _symmetry_equiv_pos_as_xyz
  1  'x, y, z'
  2  '-y, x, z+1/2'
  3  '-x, -y, z'
  4  'y, -x, z+1/2'
  5  '-x+1/2, y+1/2, z'
  6  'y+1/2, x+1/2, z+1/2'
  7  'x+1/2, -y+1/2, z'
  8  '-y+1/2, -x+1/2, z+1/2'
loop_
 _atom_site_type_symbol
 _atom_site_label
 _atom_site_symmetry_multiplicity
 _atom_site_fract_x
 _atom_site_fract_y
 _atom_site_fract_z
 _atom_site_occupancy
  Cu  Cu0  8  0.14140740  0.20271687  0.60551205  1
  Au  Au1  4  0.00000000  0.50000000  0.11145921  1
  Au  Au2  4  0.00000000  0.50000000  0.36759700  1
# generated using pymatgen
data_ID_66
_symmetry_space_group_name_H-M   Fm-3m
_cell_length_a   9.59852382
_cell_length_b   9.59852382
_cell_length_c   9.59852382
_cell_angle_alpha   90.00000000
_cell_angle_beta   90.00000000
_cell_angle_gamma   90.00000000
_symmetry_Int_Tables_number   225
_chemical_formula_structural   CuAu
_cell_volume   884.32792870
_cell_formula_units_Z   32
loop_
 _symmetry_equiv_pos_site_id
 _symmetry_equiv_pos_as_xyz
  1  'x, y, z'
  2  '-x, -y, -z'
  3  '-y, x, z'
  4  'y, -x, -z'
  5  '-x, -y, z'
  6  'x, y, -z'
  7  'y, -x, z'
  8  '-y, x, -z'
  9  'x, -y, -z'
  10  '-x, y, z'
  11  '-y, -x, -z'
  12  'y, x, z'
  13  '-x, y, -z'
  14  'x, -y, z'
  15  'y, x, -z'
  16  '-y, -x, z'
  17  'z, x, y'
  18  '-z, -x, -y'
  19  'z, -y, x'
  20  '-z, y, -x'
  21  'z, -x, -y'
  22  '-z, x, y'
  23  'z, y, -x'
  24  '-z, -y, x'
  25  '-z, x, -y'
  26  'z, -x, y'
  27  '-z, -y, -x'
  28  'z, y, x'
  29  '-z, -x, y'
  30  'z, x, -y'
  31  '-z, y, x'
  32  'z, -y, -x'
  33  'y, z, x'
  34  '-y, -z, -x'
  35  'x, z, -y'
  36  '-x, -z, y'
  37  '-y, z, -x'
  38  'y, -z, x'
  39  '-x, z, y'
  40  'x, -z, -y'
  41  '-y, -z, x'
  42  'y, z, -x'
  43  '-x, -z, -y'
  44  'x, z, y'
  45  'y, -z, -x'
  46  '-y, z, x'
  47  'x, -z, y'
  48  '-x, z, -y'
  49  'x+1/2, y+1/2, z'
  50  '-x+1/2, -y+1/2, -z'
  51  '-y+1/2, x+1/2, z'
  52  'y+1/2, -x+1/2, -z'
  53  '-x+1/2, -y+1/2, z'
  54  'x+1/2, y+1/2, -z'
  55  'y+1/2, -x+1/2, z'
  56  '-y+1/2, x+1/2, -z'
  57  'x+1/2, -y+1/2, -z'
  58  '-x+1/2, y+1/2, z'
  59  '-y+1/2, -x+1/2, -z'
  60  'y+1/2, x+1/2, z'
  61  '-x+1/2, y+1/2, -z'
  62  'x+1/2, -y+1/2, z'
  63  'y+1/2, x+1/2, -z'
  64  '-y+1/2, -x+1/2, z'
  65  'z+1/2, x+1/2, y'
  66  '-z+1/2, -x+1/2, -y'
  67  'z+1/2, -y+1/2, x'
  68  '-z+1/2, y+1/2, -x'
  69  'z+1/2, -x+1/2, -y'
  70  '-z+1/2, x+1/2, y'
  71  'z+1/2, y+1/2, -x'
  72  '-z+1/2, -y+1/2, x'
  73  '-z+1/2, x+1/2, -y'
  74  'z+1/2, -x+1/2, y'
  75  '-z+1/2, -y+1/2, -x'
  76  'z+1/2, y+1/2, x'
  77  '-z+1/2, -x+1/2, y'
  78  'z+1/2, x+1/2, -y'
  79  '-z+1/2, y+1/2, x'
  80  'z+1/2, -y+1/2, -x'
  81  'y+1/2, z+1/2, x'
  82  '-y+1/2, -z+1/2, -x'
  83  'x+1/2, z+1/2, -y'
  84  '-x+1/2, -z+1/2, y'
  85  '-y+1/2, z+1/2, -x'
  86  'y+1/2, -z+1/2, x'
  87  '-x+1/2, z+1/2, y'
  88  'x+1/2, -z+1/2, -y'
  89  '-y+1/2, -z+1/2, x'
  90  'y+1/2, z+1/2, -x'
  91  '-x+1/2, -z+1/2, -y'
  92  'x+1/2, z+1/2, y'
  93  'y+1/2, -z+1/2, -x'
  94  '-y+1/2, z+1/2, x'
  95  'x+1/2, -z+1/2, y'
  96  '-x+1/2, z+1/2, -y'
  97  'x+1/2, y, z+1/2'
  98  '-x+1/2, -y, -z+1/2'
  99  '-y+1/2, x, z+1/2'
  100  'y+1/2, -x, -z+1/2'
  101  '-x+1/2, -y, z+1/2'
  102  'x+1/2, y, -z+1/2'
  103  'y+1/2, -x, z+1/2'
  104  '-y+1/2, x, -z+1/2'
  105  'x+1/2, -y, -z+1/2'
  106  '-x+1/2, y, z+1/2'
  107  '-y+1/2, -x, -z+1/2'
  108  'y+1/2, x, z+1/2'
  109  '-x+1/2, y, -z+1/2'
  110  'x+1/2, -y, z+1/2'
  111  'y+1/2, x, -z+1/2'
  112  '-y+1/2, -x, z+1/2'
  113  'z+1/2, x, y+1/2'
  114  '-z+1/2, -x, -y+1/2'
  115  'z+1/2, -y, x+1/2'
  116  '-z+1/2, y, -x+1/2'
  117  'z+1/2, -x, -y+1/2'
  118  '-z+1/2, x, y+1/2'
  119  'z+1/2, y, -x+1/2'
  120  '-z+1/2, -y, x+1/2'
  121  '-z+1/2, x, -y+1/2'
  122  'z+1/2, -x, y+1/2'
  123  '-z+1/2, -y, -x+1/2'
  124  'z+1/2, y, x+1/2'
  125  '-z+1/2, -x, y+1/2'
  126  'z+1/2, x, -y+1/2'
  127  '-z+1/2, y, x+1/2'
  128  'z+1/2, -y, -x+1/2'
  129  'y+1/2, z, x+1/2'
  130  '-y+1/2, -z, -x+1/2'
  131  'x+1/2, z, -y+1/2'
  132  '-x+1/2, -z, y+1/2'
  133  '-y+1/2, z, -x+1/2'
  134  'y+1/2, -z, x+1/2'
  135  '-x+1/2, z, y+1/2'
  136  'x+1/2, -z, -y+1/2'
  137  '-y+1/2, -z, x+1/2'
  138  'y+1/2, z, -x+1/2'
  139  '-x+1/2, -z, -y+1/2'
  140  'x+1/2, z, y+1/2'
  141  'y+1/2, -z, -x+1/2'
  142  '-y+1/2, z, x+1/2'
  143  'x+1/2, -z, y+1/2'
  144  '-x+1/2, z, -y+1/2'
  145  'x, y+1/2, z+1/2'
  146  '-x, -y+1/2, -z+1/2'
  147  '-y, x+1/2, z+1/2'
  148  'y, -x+1/2, -z+1/2'
  149  '-x, -y+1/2, z+1/2'
  150  'x, y+1/2, -z+1/2'
  151  'y, -x+1/2, z+1/2'
  152  '-y, x+1/2, -z+1/2'
  153  'x, -y+1/2, -z+1/2'
  154  '-x, y+1/2, z+1/2'
  155  '-y, -x+1/2, -z+1/2'
  156  'y, x+1/2, z+1/2'
  157  '-x, y+1/2, -z+1/2'
  158  'x, -y+1/2, z+1/2'
  159  'y, x+1/2, -z+1/2'
  160  '-y, -x+1/2, z+1/2'
  161  'z, x+1/2, y+1/2'
  162  '-z, -x+1/2, -y+1/2'
  163  'z, -y+1/2, x+1/2'
  164  '-z, y+1/2, -x+1/2'
  165  'z, -x+1/2, -y+1/2'
  166  '-z, x+1/2, y+1/2'
  167  'z, y+1/2, -x+1/2'
  168  '-z, -y+1/2, x+1/2'
  169  '-z, x+1/2, -y+1/2'
  170  'z, -x+1/2, y+1/2'
  171  '-z, -y+1/2, -x+1/2'
  172  'z, y+1/2, x+1/2'
  173  '-z, -x+1/2, y+1/2'
  174  'z, x+1/2, -y+1/2'
  175  '-z, y+1/2, x+1/2'
  176  'z, -y+1/2, -x+1/2'
  177  'y, z+1/2, x+1/2'
  178  '-y, -z+1/2, -x+1/2'
  179  'x, z+1/2, -y+1/2'
  180  '-x, -z+1/2, y+1/2'
  181  '-y, z+1/2, -x+1/2'
  182  'y, -z+1/2, x+1/2'
  183  '-x, z+1/2, y+1/2'
  184  'x, -z+1/2, -y+1/2'
  185  '-y, -z+1/2, x+1/2'
  186  'y, z+1/2, -x+1/2'
  187  '-x, -z+1/2, -y+1/2'
  188  'x, z+1/2, y+1/2'
  189  'y, -z+1/2, -x+1/2'
  190  '-y, z+1/2, x+1/2'
  191  'x, -z+1/2, y+1/2'
  192  '-x, z+1/2, -y+1/2'
loop_
 _atom_site_type_symbol
 _atom_site_label
 _atom_site_symmetry_multiplicity
 _atom_site_fract_x
 _atom_site_fract_y
 _atom_site_fract_z
 _atom_site_occupancy
  Cu  Cu0  32  0.18334037  0.18334037  0.18334037  1
  Au  Au1  24  0.00000000  0.25000000  0.25000000  1
  Au  Au2  4  0.00000000  0.00000000  0.00000000  1
  Au  Au3  4  0.00000000  0.00000000  0.50000000  1
# generated using pymatgen
data_ID_67
_symmetry_space_group_name_H-M   Ccce
_cell_length_a   4.33088878
_cell_length_b   11.21220826
_cell_length_c   8.23771433
_cell_angle_alpha   90.00000000
_cell_angle_beta   90.00000000
_cell_angle_gamma   90.00000000
_symmetry_Int_Tables_number   68
_chemical_formula_structural   CuAu
_cell_volume   400.01374494
_cell_formula_units_Z   16
loop_
 _symmetry_equiv_pos_site_id
 _symmetry_equiv_pos_as_xyz
  1  'x, y, z'
  2  '-x, -y, z'
  3  'x, -y, -z'
  4  '-x, y, -z'
  5  '-x+1/2, -y, -z+1/2'
  6  'x+1/2, y, -z+1/2'
  7  '-x+1/2, y, z+1/2'
  8  'x+1/2, -y, z+1/2'
  9  'x+1/2, y+1/2, z'
  10  '-x+1/2, -y+1/2, z'
  11  'x+1/2, -y+1/2, -z'
  12  '-x+1/2, y+1/2, -z'
  13  '-x, -y+1/2, -z+1/2'
  14  'x, y+1/2, -z+1/2'
  15  '-x, y+1/2, z+1/2'
  16  'x, -y+1/2, z+1/2'
loop_
 _atom_site_type_symbol
 _atom_site_label
 _atom_site_symmetry_multiplicity
 _atom_site_fract_x
 _atom_site_fract_y
 _atom_site_fract_z
 _atom_site_occupancy
  Cu  Cu0  8  0.20209333  0.00000000  0.50000000  1
  Cu  Cu1  8  0.25000000  0.25000000  0.49474832  1
  Au  Au2  16  0.16530238  0.08613509  0.11239709  1
# generated using pymatgen
data_ID_68
_symmetry_space_group_name_H-M   Im-3m
_cell_length_a   7.49566257
_cell_length_b   7.49566257
_cell_length_c   7.49566257
_cell_angle_alpha   90.00000000
_cell_angle_beta   90.00000000
_cell_angle_gamma   90.00000000
_symmetry_Int_Tables_number   229
_chemical_formula_structural   CuAu
_cell_volume   421.14348194
_cell_formula_units_Z   16
loop_
 _symmetry_equiv_pos_site_id
 _symmetry_equiv_pos_as_xyz
  1  'x, y, z'
  2  '-x, -y, -z'
  3  '-y, x, z'
  4  'y, -x, -z'
  5  '-x, -y, z'
  6  'x, y, -z'
  7  'y, -x, z'
  8  '-y, x, -z'
  9  'x, -y, -z'
  10  '-x, y, z'
  11  '-y, -x, -z'
  12  'y, x, z'
  13  '-x, y, -z'
  14  'x, -y, z'
  15  'y, x, -z'
  16  '-y, -x, z'
  17  'z, x, y'
  18  '-z, -x, -y'
  19  'z, -y, x'
  20  '-z, y, -x'
  21  'z, -x, -y'
  22  '-z, x, y'
  23  'z, y, -x'
  24  '-z, -y, x'
  25  '-z, x, -y'
  26  'z, -x, y'
  27  '-z, -y, -x'
  28  'z, y, x'
  29  '-z, -x, y'
  30  'z, x, -y'
  31  '-z, y, x'
  32  'z, -y, -x'
  33  'y, z, x'
  34  '-y, -z, -x'
  35  'x, z, -y'
  36  '-x, -z, y'
  37  '-y, z, -x'
  38  'y, -z, x'
  39  '-x, z, y'
  40  'x, -z, -y'
  41  '-y, -z, x'
  42  'y, z, -x'
  43  '-x, -z, -y'
  44  'x, z, y'
  45  'y, -z, -x'
  46  '-y, z, x'
  47  'x, -z, y'
  48  '-x, z, -y'
  49  'x+1/2, y+1/2, z+1/2'
  50  '-x+1/2, -y+1/2, -z+1/2'
  51  '-y+1/2, x+1/2, z+1/2'
  52  'y+1/2, -x+1/2, -z+1/2'
  53  '-x+1/2, -y+1/2, z+1/2'
  54  'x+1/2, y+1/2, -z+1/2'
  55  'y+1/2, -x+1/2, z+1/2'
  56  '-y+1/2, x+1/2, -z+1/2'
  57  'x+1/2, -y+1/2, -z+1/2'
  58  '-x+1/2, y+1/2, z+1/2'
  59  '-y+1/2, -x+1/2, -z+1/2'
  60  'y+1/2, x+1/2, z+1/2'
  61  '-x+1/2, y+1/2, -z+1/2'
  62  'x+1/2, -y+1/2, z+1/2'
  63  'y+1/2, x+1/2, -z+1/2'
  64  '-y+1/2, -x+1/2, z+1/2'
  65  'z+1/2, x+1/2, y+1/2'
  66  '-z+1/2, -x+1/2, -y+1/2'
  67  'z+1/2, -y+1/2, x+1/2'
  68  '-z+1/2, y+1/2, -x+1/2'
  69  'z+1/2, -x+1/2, -y+1/2'
  70  '-z+1/2, x+1/2, y+1/2'
  71  'z+1/2, y+1/2, -x+1/2'
  72  '-z+1/2, -y+1/2, x+1/2'
  73  '-z+1/2, x+1/2, -y+1/2'
  74  'z+1/2, -x+1/2, y+1/2'
  75  '-z+1/2, -y+1/2, -x+1/2'
  76  'z+1/2, y+1/2, x+1/2'
  77  '-z+1/2, -x+1/2, y+1/2'
  78  'z+1/2, x+1/2, -y+1/2'
  79  '-z+1/2, y+1/2, x+1/2'
  80  'z+1/2, -y+1/2, -x+1/2'
  81  'y+1/2, z+1/2, x+1/2'
  82  '-y+1/2, -z+1/2, -x+1/2'
  83  'x+1/2, z+1/2, -y+1/2'
  84  '-x+1/2, -z+1/2, y+1/2'
  85  '-y+1/2, z+1/2, -x+1/2'
  86  'y+1/2, -z+1/2, x+1/2'
  87  '-x+1/2, z+1/2, y+1/2'
  88  'x+1/2, -z+1/2, -y+1/2'
  89  '-y+1/2, -z+1/2, x+1/2'
  90  'y+1/2, z+1/2, -x+1/2'
  91  '-x+1/2, -z+1/2, -y+1/2'
  92  'x+1/2, z+1/2, y+1/2'
  93  'y+1/2, -z+1/2, -x+1/2'
  94  '-y+1/2, z+1/2, x+1/2'
  95  'x+1/2, -z+1/2, y+1/2'
  96  '-x+1/2, z+1/2, -y+1/2'
loop_
 _atom_site_type_symbol
 _atom_site_label
 _atom_site_symmetry_multiplicity
 _atom_site_fract_x
 _atom_site_fract_y
 _atom_site_fract_z
 _atom_site_occupancy
  Cu  Cu0  16  0.12783376  0.87216624  0.12783376  1
  Au  Au1  8  0.25000000  0.25000000  0.25000000  1
  Au  Au2  6  0.00000000  0.00000000  0.50000000  1
  Au  Au3  2  0.00000000  0.00000000  0.00000000  1
# generated using pymatgen
data_ID_69
_symmetry_space_group_name_H-M   P6
_cell_length_a   7.39311535
_cell_length_b   7.39311535
_cell_length_c   4.98416086
_cell_angle_alpha   90.00000000
_cell_angle_beta   90.00000000
_cell_angle_gamma   120.00000000
_symmetry_Int_Tables_number   168
_chemical_formula_structural   CuAu
_cell_volume   235.92700074
_cell_formula_units_Z   8
loop_
 _symmetry_equiv_pos_site_id
 _symmetry_equiv_pos_as_xyz
  1  'x, y, z'
  2  'x-y, x, z'
  3  '-y, x-y, z'
  4  '-x, -y, z'
  5  '-x+y, -x, z'
  6  'y, -x+y, z'
loop_
 _atom_site_type_symbol
 _atom_site_label
 _atom_site_symmetry_multiplicity
 _atom_site_fract_x
 _atom_site_fract_y
 _atom_site_fract_z
 _atom_site_occupancy
  Cu  Cu0  3  0.00000000  0.50000000  0.23821300  1
  Cu  Cu1  3  0.00000000  0.50000000  0.94710036  1
  Cu  Cu2  2  0.33333333  0.66666667  0.39768112  1
  Au  Au3  6  0.19410250  0.63391594  0.69440250  1
  Au  Au4  1  0.00000000  0.00000000  0.25724851  1
  Au  Au5  1  0.00000000  0.00000000  0.57991163  1
# generated using pymatgen
data_ID_70
_symmetry_space_group_name_H-M   I-42m
_cell_length_a   5.98419131
_cell_length_b   5.98419131
_cell_length_c   11.28912365
_cell_angle_alpha   90.00000000
_cell_angle_beta   90.00000000
_cell_angle_gamma   90.00000000
_symmetry_Int_Tables_number   121
_chemical_formula_structural   CuAu
_cell_volume   404.26967833
_cell_formula_units_Z   16
loop_
 _symmetry_equiv_pos_site_id
 _symmetry_equiv_pos_as_xyz
  1  'x, y, z'
  2  'y, -x, -z'
  3  '-x, -y, z'
  4  '-y, x, -z'
  5  'x, -y, -z'
  6  'y, x, z'
  7  '-x, y, -z'
  8  '-y, -x, z'
  9  'x+1/2, y+1/2, z+1/2'
  10  'y+1/2, -x+1/2, -z+1/2'
  11  '-x+1/2, -y+1/2, z+1/2'
  12  '-y+1/2, x+1/2, -z+1/2'
  13  'x+1/2, -y+1/2, -z+1/2'
  14  'y+1/2, x+1/2, z+1/2'
  15  '-x+1/2, y+1/2, -z+1/2'
  16  '-y+1/2, -x+1/2, z+1/2'
loop_
 _atom_site_type_symbol
 _atom_site_label
 _atom_site_symmetry_multiplicity
 _atom_site_fract_x
 _atom_site_fract_y
 _atom_site_fract_z
 _atom_site_occupancy
  Cu  Cu0  16  0.03950121  0.34128822  0.75945374  1
  Au  Au1  8  0.11735703  0.11735703  0.00956661  1
  Au  Au2  8  0.21754459  0.21754459  0.25256629  1
# generated using pymatgen
data_ID_71
_symmetry_space_group_name_H-M   Pm-3m
_cell_length_a   2.86904426
_cell_length_b   2.86904426
_cell_length_c   2.86904426
_cell_angle_alpha   90.00000000
_cell_angle_beta   90.00000000
_cell_angle_gamma   90.00000000
_symmetry_Int_Tables_number   221
_chemical_formula_structural   CuAu
_cell_volume   23.61629379
_cell_formula_units_Z   1
loop_
 _symmetry_equiv_pos_site_id
 _symmetry_equiv_pos_as_xyz
  1  'x, y, z'
  2  '-x, -y, -z'
  3  '-y, x, z'
  4  'y, -x, -z'
  5  '-x, -y, z'
  6  'x, y, -z'
  7  'y, -x, z'
  8  '-y, x, -z'
  9  'x, -y, -z'
  10  '-x, y, z'
  11  '-y, -x, -z'
  12  'y, x, z'
  13  '-x, y, -z'
  14  'x, -y, z'
  15  'y, x, -z'
  16  '-y, -x, z'
  17  'z, x, y'
  18  '-z, -x, -y'
  19  'z, -y, x'
  20  '-z, y, -x'
  21  'z, -x, -y'
  22  '-z, x, y'
  23  'z, y, -x'
  24  '-z, -y, x'
  25  '-z, x, -y'
  26  'z, -x, y'
  27  '-z, -y, -x'
  28  'z, y, x'
  29  '-z, -x, y'
  30  'z, x, -y'
  31  '-z, y, x'
  32  'z, -y, -x'
  33  'y, z, x'
  34  '-y, -z, -x'
  35  'x, z, -y'
  36  '-x, -z, y'
  37  '-y, z, -x'
  38  'y, -z, x'
  39  '-x, z, y'
  40  'x, -z, -y'
  41  '-y, -z, x'
  42  'y, z, -x'
  43  '-x, -z, -y'
  44  'x, z, y'
  45  'y, -z, -x'
  46  '-y, z, x'
  47  'x, -z, y'
  48  '-x, z, -y'
loop_
 _atom_site_type_symbol
 _atom_site_label
 _atom_site_symmetry_multiplicity
 _atom_site_fract_x
 _atom_site_fract_y
 _atom_site_fract_z
 _atom_site_occupancy
  Cu  Cu0  1  0.00000000  0.00000000  0.00000000  1
  Au  Au1  1  0.50000000  0.50000000  0.50000000  1
# generated using pymatgen
data_ID_72
_symmetry_space_group_name_H-M   P4/mbm
_cell_length_a   5.51642737
_cell_length_b   5.51642737
_cell_length_c   7.99606792
_cell_angle_alpha   90.00000000
_cell_angle_beta   90.00000000
_cell_angle_gamma   90.00000000
_symmetry_Int_Tables_number   127
_chemical_formula_structural   CuAu
_cell_volume   243.32811049
_cell_formula_units_Z   8
loop_
 _symmetry_equiv_pos_site_id
 _symmetry_equiv_pos_as_xyz
  1  'x, y, z'
  2  '-x, -y, -z'
  3  '-y, x, z'
  4  'y, -x, -z'
  5  '-x, -y, z'
  6  'x, y, -z'
  7  'y, -x, z'
  8  '-y, x, -z'
  9  'x+1/2, -y+1/2, -z'
  10  '-x+1/2, y+1/2, z'
  11  '-y+1/2, -x+1/2, -z'
  12  'y+1/2, x+1/2, z'
  13  '-x+1/2, y+1/2, -z'
  14  'x+1/2, -y+1/2, z'
  15  'y+1/2, x+1/2, -z'
  16  '-y+1/2, -x+1/2, z'
loop_
 _atom_site_type_symbol
 _atom_site_label
 _atom_site_symmetry_multiplicity
 _atom_site_fract_x
 _atom_site_fract_y
 _atom_site_fract_z
 _atom_site_occupancy
  Cu  Cu0  4  0.00000000  0.50000000  0.25950410  1
  Cu  Cu1  4  0.14864993  0.64864993  0.00000000  1
  Au  Au2  8  0.23476142  0.26523858  0.20946577  1
# generated using pymatgen
data_ID_73
_symmetry_space_group_name_H-M   P-4n2
_cell_length_a   7.63016514
_cell_length_b   7.63016514
_cell_length_c   4.34491071
_cell_angle_alpha   90.00000000
_cell_angle_beta   90.00000000
_cell_angle_gamma   90.00000000
_symmetry_Int_Tables_number   118
_chemical_formula_structural   CuAu
_cell_volume   252.95818228
_cell_formula_units_Z   8
loop_
 _symmetry_equiv_pos_site_id
 _symmetry_equiv_pos_as_xyz
  1  'x, y, z'
  2  'y, -x, -z'
  3  '-x, -y, z'
  4  '-y, x, -z'
  5  '-x+1/2, y+1/2, z+1/2'
  6  '-y+1/2, -x+1/2, -z+1/2'
  7  'x+1/2, -y+1/2, z+1/2'
  8  'y+1/2, x+1/2, -z+1/2'
loop_
 _atom_site_type_symbol
 _atom_site_label
 _atom_site_symmetry_multiplicity
 _atom_site_fract_x
 _atom_site_fract_y
 _atom_site_fract_z
 _atom_site_occupancy
  Cu  Cu0  4  0.12480774  0.62480774  0.25000000  1
  Cu  Cu1  2  0.00000000  0.00000000  0.00000000  1
  Cu  Cu2  2  0.00000000  0.50000000  0.75000000  1
  Au  Au3  4  0.20228612  0.70228612  0.75000000  1
  Au  Au4  2  0.00000000  0.00000000  0.50000000  1
  Au  Au5  2  0.00000000  0.50000000  0.25000000  1
# generated using pymatgen
data_ID_74
_symmetry_space_group_name_H-M   P4_2/mmc
_cell_length_a   4.87795082
_cell_length_b   4.87795082
_cell_length_c   8.49565550
_cell_angle_alpha   90.00000000
_cell_angle_beta   90.00000000
_cell_angle_gamma   90.00000000
_symmetry_Int_Tables_number   131
_chemical_formula_structural   CuAu
_cell_volume   202.14906055
_cell_formula_units_Z   8
loop_
 _symmetry_equiv_pos_site_id
 _symmetry_equiv_pos_as_xyz
  1  'x, y, z'
  2  '-x, -y, -z'
  3  '-y, x, z+1/2'
  4  'y, -x, -z+1/2'
  5  '-x, -y, z'
  6  'x, y, -z'
  7  'y, -x, z+1/2'
  8  '-y, x, -z+1/2'
  9  'x, -y, -z'
  10  '-x, y, z'
  11  '-y, -x, -z+1/2'
  12  'y, x, z+1/2'
  13  '-x, y, -z'
  14  'x, -y, z'
  15  'y, x, -z+1/2'
  16  '-y, -x, z+1/2'
loop_
 _atom_site_type_symbol
 _atom_site_label
 _atom_site_symmetry_multiplicity
 _atom_site_fract_x
 _atom_site_fract_y
 _atom_site_fract_z
 _atom_site_occupancy
  Cu  Cu0  4  0.00000000  0.50000000  0.18212054  1
  Cu  Cu1  2  0.00000000  0.50000000  0.50000000  1
  Cu  Cu2  2  0.50000000  0.50000000  0.00000000  1
  Au  Au3  4  0.00000000  0.00000000  0.11642652  1
  Au  Au4  2  0.00000000  0.50000000  0.00000000  1
  Au  Au5  2  0.50000000  0.50000000  0.25000000  1
# generated using pymatgen
data_ID_75
_symmetry_space_group_name_H-M   F-43m
_cell_length_a   9.66652901
_cell_length_b   9.66652901
_cell_length_c   9.66652901
_cell_angle_alpha   90.00000000
_cell_angle_beta   90.00000000
_cell_angle_gamma   90.00000000
_symmetry_Int_Tables_number   216
_chemical_formula_structural   CuAu
_cell_volume   903.25770805
_cell_formula_units_Z   32
loop_
 _symmetry_equiv_pos_site_id
 _symmetry_equiv_pos_as_xyz
  1  'x, y, z'
  2  'y, -x, -z'
  3  '-x, -y, z'
  4  '-y, x, -z'
  5  'x, -y, -z'
  6  'y, x, z'
  7  '-x, y, -z'
  8  '-y, -x, z'
  9  'z, x, y'
  10  '-z, y, -x'
  11  'z, -x, -y'
  12  '-z, -y, x'
  13  '-z, x, -y'
  14  'z, y, x'
  15  '-z, -x, y'
  16  'z, -y, -x'
  17  'y, z, x'
  18  '-x, -z, y'
  19  '-y, z, -x'
  20  'x, -z, -y'
  21  '-y, -z, x'
  22  'x, z, y'
  23  'y, -z, -x'
  24  '-x, z, -y'
  25  'x+1/2, y+1/2, z'
  26  'y+1/2, -x+1/2, -z'
  27  '-x+1/2, -y+1/2, z'
  28  '-y+1/2, x+1/2, -z'
  29  'x+1/2, -y+1/2, -z'
  30  'y+1/2, x+1/2, z'
  31  '-x+1/2, y+1/2, -z'
  32  '-y+1/2, -x+1/2, z'
  33  'z+1/2, x+1/2, y'
  34  '-z+1/2, y+1/2, -x'
  35  'z+1/2, -x+1/2, -y'
  36  '-z+1/2, -y+1/2, x'
  37  '-z+1/2, x+1/2, -y'
  38  'z+1/2, y+1/2, x'
  39  '-z+1/2, -x+1/2, y'
  40  'z+1/2, -y+1/2, -x'
  41  'y+1/2, z+1/2, x'
  42  '-x+1/2, -z+1/2, y'
  43  '-y+1/2, z+1/2, -x'
  44  'x+1/2, -z+1/2, -y'
  45  '-y+1/2, -z+1/2, x'
  46  'x+1/2, z+1/2, y'
  47  'y+1/2, -z+1/2, -x'
  48  '-x+1/2, z+1/2, -y'
  49  'x+1/2, y, z+1/2'
  50  'y+1/2, -x, -z+1/2'
  51  '-x+1/2, -y, z+1/2'
  52  '-y+1/2, x, -z+1/2'
  53  'x+1/2, -y, -z+1/2'
  54  'y+1/2, x, z+1/2'
  55  '-x+1/2, y, -z+1/2'
  56  '-y+1/2, -x, z+1/2'
  57  'z+1/2, x, y+1/2'
  58  '-z+1/2, y, -x+1/2'
  59  'z+1/2, -x, -y+1/2'
  60  '-z+1/2, -y, x+1/2'
  61  '-z+1/2, x, -y+1/2'
  62  'z+1/2, y, x+1/2'
  63  '-z+1/2, -x, y+1/2'
  64  'z+1/2, -y, -x+1/2'
  65  'y+1/2, z, x+1/2'
  66  '-x+1/2, -z, y+1/2'
  67  '-y+1/2, z, -x+1/2'
  68  'x+1/2, -z, -y+1/2'
  69  '-y+1/2, -z, x+1/2'
  70  'x+1/2, z, y+1/2'
  71  'y+1/2, -z, -x+1/2'
  72  '-x+1/2, z, -y+1/2'
  73  'x, y+1/2, z+1/2'
  74  'y, -x+1/2, -z+1/2'
  75  '-x, -y+1/2, z+1/2'
  76  '-y, x+1/2, -z+1/2'
  77  'x, -y+1/2, -z+1/2'
  78  'y, x+1/2, z+1/2'
  79  '-x, y+1/2, -z+1/2'
  80  '-y, -x+1/2, z+1/2'
  81  'z, x+1/2, y+1/2'
  82  '-z, y+1/2, -x+1/2'
  83  'z, -x+1/2, -y+1/2'
  84  '-z, -y+1/2, x+1/2'
  85  '-z, x+1/2, -y+1/2'
  86  'z, y+1/2, x+1/2'
  87  '-z, -x+1/2, y+1/2'
  88  'z, -y+1/2, -x+1/2'
  89  'y, z+1/2, x+1/2'
  90  '-x, -z+1/2, y+1/2'
  91  '-y, z+1/2, -x+1/2'
  92  'x, -z+1/2, -y+1/2'
  93  '-y, -z+1/2, x+1/2'
  94  'x, z+1/2, y+1/2'
  95  'y, -z+1/2, -x+1/2'
  96  '-x, z+1/2, -y+1/2'
loop_
 _atom_site_type_symbol
 _atom_site_label
 _atom_site_symmetry_multiplicity
 _atom_site_fract_x
 _atom_site_fract_y
 _atom_site_fract_z
 _atom_site_occupancy
  Cu  Cu0  24  0.08272377  0.25000000  0.25000000  1
  Cu  Cu1  4  0.00000000  0.00000000  0.50000000  1
  Cu  Cu2  4  0.25000000  0.25000000  0.75000000  1
  Au  Au3  24  0.00000000  0.00000000  0.19507453  1
  Au  Au4  4  0.00000000  0.00000000  0.00000000  1
  Au  Au5  4  0.25000000  0.25000000  0.25000000  1
# generated using pymatgen
data_ID_76
_symmetry_space_group_name_H-M   Fddd
_cell_length_a   5.95279788
_cell_length_b   9.65384264
_cell_length_c   15.08729004
_cell_angle_alpha   90.00000000
_cell_angle_beta   90.00000000
_cell_angle_gamma   90.00000000
_symmetry_Int_Tables_number   70
_chemical_formula_structural   CuAu
_cell_volume   867.02693926
_cell_formula_units_Z   32
loop_
 _symmetry_equiv_pos_site_id
 _symmetry_equiv_pos_as_xyz
  1  'x, y, z'
  2  '-x, -y, z'
  3  'x, -y, -z'
  4  '-x, y, -z'
  5  '-x+1/4, -y+1/4, -z+1/4'
  6  'x+1/4, y+1/4, -z+1/4'
  7  '-x+1/4, y+1/4, z+1/4'
  8  'x+1/4, -y+1/4, z+1/4'
  9  'x+1/2, y, z+1/2'
  10  '-x+1/2, -y, z+1/2'
  11  'x+1/2, -y, -z+1/2'
  12  '-x+1/2, y, -z+1/2'
  13  '-x+3/4, -y+1/4, -z+3/4'
  14  'x+3/4, y+1/4, -z+3/4'
  15  '-x+3/4, y+1/4, z+3/4'
  16  'x+3/4, -y+1/4, z+3/4'
  17  'x+1/2, y+1/2, z'
  18  '-x+1/2, -y+1/2, z'
  19  'x+1/2, -y+1/2, -z'
  20  '-x+1/2, y+1/2, -z'
  21  '-x+3/4, -y+3/4, -z+1/4'
  22  'x+3/4, y+3/4, -z+1/4'
  23  '-x+3/4, y+3/4, z+1/4'
  24  'x+3/4, -y+3/4, z+1/4'
  25  'x, y+1/2, z+1/2'
  26  '-x, -y+1/2, z+1/2'
  27  'x, -y+1/2, -z+1/2'
  28  '-x, y+1/2, -z+1/2'
  29  '-x+1/4, -y+3/4, -z+3/4'
  30  'x+1/4, y+3/4, -z+3/4'
  31  '-x+1/4, y+3/4, z+3/4'
  32  'x+1/4, -y+3/4, z+3/4'
loop_
 _atom_site_type_symbol
 _atom_site_label
 _atom_site_symmetry_multiplicity
 _atom_site_fract_x
 _atom_site_fract_y
 _atom_site_fract_z
 _atom_site_occupancy
  Cu  Cu0  16  0.00000000  0.09758890  0.00000000  1
  Cu  Cu1  16  0.12500000  0.12500000  0.12500000  1
  Au  Au2  16  0.00000000  0.00000000  0.13662926  1
  Au  Au3  16  0.00000000  0.00000000  0.28207099  1
# generated using pymatgen
data_ID_77
_symmetry_space_group_name_H-M   Cmmm
_cell_length_a   6.80191222
_cell_length_b   9.16145278
_cell_length_c   6.75467123
_cell_angle_alpha   90.00000000
_cell_angle_beta   90.00000000
_cell_angle_gamma   90.00000000
_symmetry_Int_Tables_number   65
_chemical_formula_structural   CuAu
_cell_volume   420.92002330
_cell_formula_units_Z   16
loop_
 _symmetry_equiv_pos_site_id
 _symmetry_equiv_pos_as_xyz
  1  'x, y, z'
  2  '-x, -y, -z'
  3  '-x, -y, z'
  4  'x, y, -z'
  5  'x, -y, -z'
  6  '-x, y, z'
  7  '-x, y, -z'
  8  'x, -y, z'
  9  'x+1/2, y+1/2, z'
  10  '-x+1/2, -y+1/2, -z'
  11  '-x+1/2, -y+1/2, z'
  12  'x+1/2, y+1/2, -z'
  13  'x+1/2, -y+1/2, -z'
  14  '-x+1/2, y+1/2, z'
  15  '-x+1/2, y+1/2, -z'
  16  'x+1/2, -y+1/2, z'
loop_
 _atom_site_type_symbol
 _atom_site_label
 _atom_site_symmetry_multiplicity
 _atom_site_fract_x
 _atom_site_fract_y
 _atom_site_fract_z
 _atom_site_occupancy
  Cu  Cu0  8  0.20020753  0.00000000  0.37174161  1
  Cu  Cu1  4  0.00000000  0.16957047  0.50000000  1
  Cu  Cu2  2  0.00000000  0.50000000  0.00000000  1
  Cu  Cu3  2  0.00000000  0.50000000  0.50000000  1
  Au  Au4  8  0.00000000  0.36671857  0.18517605  1
  Au  Au5  8  0.25000000  0.25000000  0.13541021  1
# generated using pymatgen
data_ID_78
_symmetry_space_group_name_H-M   I422
_cell_length_a   12.34487007
_cell_length_b   12.34487007
_cell_length_c   3.02345866
_cell_angle_alpha   90.00000000
_cell_angle_beta   90.00000000
_cell_angle_gamma   90.00000000
_symmetry_Int_Tables_number   97
_chemical_formula_structural   CuAu
_cell_volume   460.76245287
_cell_formula_units_Z   16
loop_
 _symmetry_equiv_pos_site_id
 _symmetry_equiv_pos_as_xyz
  1  'x, y, z'
  2  '-y, x, z'
  3  '-x, -y, z'
  4  'y, -x, z'
  5  'x, -y, -z'
  6  '-y, -x, -z'
  7  '-x, y, -z'
  8  'y, x, -z'
  9  'x+1/2, y+1/2, z+1/2'
  10  '-y+1/2, x+1/2, z+1/2'
  11  '-x+1/2, -y+1/2, z+1/2'
  12  'y+1/2, -x+1/2, z+1/2'
  13  'x+1/2, -y+1/2, -z+1/2'
  14  '-y+1/2, -x+1/2, -z+1/2'
  15  '-x+1/2, y+1/2, -z+1/2'
  16  'y+1/2, x+1/2, -z+1/2'
loop_
 _atom_site_type_symbol
 _atom_site_label
 _atom_site_symmetry_multiplicity
 _atom_site_fract_x
 _atom_site_fract_y
 _atom_site_fract_z
 _atom_site_occupancy
  Cu  Cu0  8  0.00000000  0.34507495  0.50000000  1
  Cu  Cu1  4  0.00000000  0.50000000  0.25000000  1
  Cu  Cu2  2  0.00000000  0.00000000  0.00000000  1
  Cu  Cu3  2  0.00000000  0.00000000  0.50000000  1
  Au  Au4  8  0.08814084  0.41185916  0.25000000  1
  Au  Au5  8  0.21819343  0.21819343  0.00000000  1
# generated using pymatgen
data_ID_79
_symmetry_space_group_name_H-M   P4_2/nmc
_cell_length_a   6.03856882
_cell_length_b   6.03856882
_cell_length_c   6.44824918
_cell_angle_alpha   90.00000000
_cell_angle_beta   90.00000000
_cell_angle_gamma   90.00000000
_symmetry_Int_Tables_number   137
_chemical_formula_structural   CuAu
_cell_volume   235.13097904
_cell_formula_units_Z   8
loop_
 _symmetry_equiv_pos_site_id
 _symmetry_equiv_pos_as_xyz
  1  'x, y, z'
  2  '-y+1/2, x+1/2, z+1/2'
  3  '-x, -y, z'
  4  'y+1/2, -x+1/2, z+1/2'
  5  'x+1/2, -y+1/2, -z+1/2'
  6  '-y, -x, -z'
  7  '-x+1/2, y+1/2, -z+1/2'
  8  'y, x, -z'
  9  '-x+1/2, -y+1/2, -z+1/2'
  10  'y, -x, -z'
  11  'x+1/2, y+1/2, -z+1/2'
  12  '-y, x, -z'
  13  '-x, y, z'
  14  'y+1/2, x+1/2, z+1/2'
  15  'x, -y, z'
  16  '-y+1/2, -x+1/2, z+1/2'
loop_
 _atom_site_type_symbol
 _atom_site_label
 _atom_site_symmetry_multiplicity
 _atom_site_fract_x
 _atom_site_fract_y
 _atom_site_fract_z
 _atom_site_occupancy
  Cu  Cu0  8  0.00000000  0.18191015  0.24830178  1
  Au  Au1  4  0.00000000  0.50000000  0.27143086  1
  Au  Au2  2  0.00000000  0.00000000  0.00000000  1
  Au  Au3  2  0.00000000  0.00000000  0.50000000  1
# generated using pymatgen
data_ID_80
_symmetry_space_group_name_H-M   I-43m
_cell_length_a   6.04454898
_cell_length_b   6.04454898
_cell_length_c   6.04454898
_cell_angle_alpha   90.00000000
_cell_angle_beta   90.00000000
_cell_angle_gamma   90.00000000
_symmetry_Int_Tables_number   217
_chemical_formula_structural   CuAu
_cell_volume   220.84710180
_cell_formula_units_Z   8
loop_
 _symmetry_equiv_pos_site_id
 _symmetry_equiv_pos_as_xyz
  1  'x, y, z'
  2  'y, -x, -z'
  3  '-x, -y, z'
  4  '-y, x, -z'
  5  'x, -y, -z'
  6  'y, x, z'
  7  '-x, y, -z'
  8  '-y, -x, z'
  9  'z, x, y'
  10  '-z, y, -x'
  11  'z, -x, -y'
  12  '-z, -y, x'
  13  '-z, x, -y'
  14  'z, y, x'
  15  '-z, -x, y'
  16  'z, -y, -x'
  17  'y, z, x'
  18  '-x, -z, y'
  19  '-y, z, -x'
  20  'x, -z, -y'
  21  '-y, -z, x'
  22  'x, z, y'
  23  'y, -z, -x'
  24  '-x, z, -y'
  25  'x+1/2, y+1/2, z+1/2'
  26  'y+1/2, -x+1/2, -z+1/2'
  27  '-x+1/2, -y+1/2, z+1/2'
  28  '-y+1/2, x+1/2, -z+1/2'
  29  'x+1/2, -y+1/2, -z+1/2'
  30  'y+1/2, x+1/2, z+1/2'
  31  '-x+1/2, y+1/2, -z+1/2'
  32  '-y+1/2, -x+1/2, z+1/2'
  33  'z+1/2, x+1/2, y+1/2'
  34  '-z+1/2, y+1/2, -x+1/2'
  35  'z+1/2, -x+1/2, -y+1/2'
  36  '-z+1/2, -y+1/2, x+1/2'
  37  '-z+1/2, x+1/2, -y+1/2'
  38  'z+1/2, y+1/2, x+1/2'
  39  '-z+1/2, -x+1/2, y+1/2'
  40  'z+1/2, -y+1/2, -x+1/2'
  41  'y+1/2, z+1/2, x+1/2'
  42  '-x+1/2, -z+1/2, y+1/2'
  43  '-y+1/2, z+1/2, -x+1/2'
  44  'x+1/2, -z+1/2, -y+1/2'
  45  '-y+1/2, -z+1/2, x+1/2'
  46  'x+1/2, z+1/2, y+1/2'
  47  'y+1/2, -z+1/2, -x+1/2'
  48  '-x+1/2, z+1/2, -y+1/2'
loop_
 _atom_site_type_symbol
 _atom_site_label
 _atom_site_symmetry_multiplicity
 _atom_site_fract_x
 _atom_site_fract_y
 _atom_site_fract_z
 _atom_site_occupancy
  Cu  Cu0  8  0.20760879  0.20760879  0.79239121  1
  Au  Au1  6  0.00000000  0.00000000  0.50000000  1
  Au  Au2  2  0.00000000  0.00000000  0.00000000  1
# generated using pymatgen
data_ID_81
_symmetry_space_group_name_H-M   Pmma
_cell_length_a   4.81310051
_cell_length_b   2.89528631
_cell_length_c   7.61091540
_cell_angle_alpha   90.00000000
_cell_angle_beta   90.00000000
_cell_angle_gamma   90.00000000
_symmetry_Int_Tables_number   51
_chemical_formula_structural   CuAu
_cell_volume   106.06042015
_cell_formula_units_Z   4
loop_
 _symmetry_equiv_pos_site_id
 _symmetry_equiv_pos_as_xyz
  1  'x, y, z'
  2  '-x, -y, -z'
  3  '-x+1/2, -y, z'
  4  'x+1/2, y, -z'
  5  'x+1/2, -y, -z'
  6  '-x+1/2, y, z'
  7  '-x, y, -z'
  8  'x, -y, z'
loop_
 _atom_site_type_symbol
 _atom_site_label
 _atom_site_symmetry_multiplicity
 _atom_site_fract_x
 _atom_site_fract_y
 _atom_site_fract_z
 _atom_site_occupancy
  Cu  Cu0  2  0.00000000  0.00000000  0.50000000  1
  Cu  Cu1  2  0.25000000  0.00000000  0.86342464  1
  Au  Au2  2  0.00000000  0.00000000  0.00000000  1
  Au  Au3  2  0.25000000  0.00000000  0.17035327  1
# generated using pymatgen
data_ID_82
_symmetry_space_group_name_H-M   I4cm
_cell_length_a   6.43035240
_cell_length_b   6.43035240
_cell_length_c   12.68641956
_cell_angle_alpha   90.00000000
_cell_angle_beta   90.00000000
_cell_angle_gamma   90.00000000
_symmetry_Int_Tables_number   108
_chemical_formula_structural   CuAu
_cell_volume   524.57624361
_cell_formula_units_Z   16
loop_
 _symmetry_equiv_pos_site_id
 _symmetry_equiv_pos_as_xyz
  1  'x, y, z'
  2  '-y, x, z'
  3  '-x, -y, z'
  4  'y, -x, z'
  5  '-x, y, z+1/2'
  6  'y, x, z+1/2'
  7  'x, -y, z+1/2'
  8  '-y, -x, z+1/2'
  9  'x+1/2, y+1/2, z+1/2'
  10  '-y+1/2, x+1/2, z+1/2'
  11  '-x+1/2, -y+1/2, z+1/2'
  12  'y+1/2, -x+1/2, z+1/2'
  13  '-x+1/2, y+1/2, z'
  14  'y+1/2, x+1/2, z'
  15  'x+1/2, -y+1/2, z'
  16  '-y+1/2, -x+1/2, z'
loop_
 _atom_site_type_symbol
 _atom_site_label
 _atom_site_symmetry_multiplicity
 _atom_site_fract_x
 _atom_site_fract_y
 _atom_site_fract_z
 _atom_site_occupancy
  Cu  Cu0  8  0.12879056  0.37120944  0.95712506  1
  Cu  Cu1  4  0.00000000  0.00000000  0.31066601  1
  Cu  Cu2  4  0.00000000  0.50000000  0.37208005  1
  Au  Au3  8  0.22057544  0.27942456  0.14641179  1
  Au  Au4  4  0.00000000  0.00000000  0.06689145  1
  Au  Au5  4  0.00000000  0.50000000  0.16575050  1
# generated using pymatgen
data_ID_83
_symmetry_space_group_name_H-M   I-43m
_cell_length_a   7.88021962
_cell_length_b   7.88021962
_cell_length_c   7.88021962
_cell_angle_alpha   90.00000000
_cell_angle_beta   90.00000000
_cell_angle_gamma   90.00000000
_symmetry_Int_Tables_number   217
_chemical_formula_structural   CuAu
_cell_volume   489.34478525
_cell_formula_units_Z   16
loop_
 _symmetry_equiv_pos_site_id
 _symmetry_equiv_pos_as_xyz
  1  'x, y, z'
  2  'y, -x, -z'
  3  '-x, -y, z'
  4  '-y, x, -z'
  5  'x, -y, -z'
  6  'y, x, z'
  7  '-x, y, -z'
  8  '-y, -x, z'
  9  'z, x, y'
  10  '-z, y, -x'
  11  'z, -x, -y'
  12  '-z, -y, x'
  13  '-z, x, -y'
  14  'z, y, x'
  15  '-z, -x, y'
  16  'z, -y, -x'
  17  'y, z, x'
  18  '-x, -z, y'
  19  '-y, z, -x'
  20  'x, -z, -y'
  21  '-y, -z, x'
  22  'x, z, y'
  23  'y, -z, -x'
  24  '-x, z, -y'
  25  'x+1/2, y+1/2, z+1/2'
  26  'y+1/2, -x+1/2, -z+1/2'
  27  '-x+1/2, -y+1/2, z+1/2'
  28  '-y+1/2, x+1/2, -z+1/2'
  29  'x+1/2, -y+1/2, -z+1/2'
  30  'y+1/2, x+1/2, z+1/2'
  31  '-x+1/2, y+1/2, -z+1/2'
  32  '-y+1/2, -x+1/2, z+1/2'
  33  'z+1/2, x+1/2, y+1/2'
  34  '-z+1/2, y+1/2, -x+1/2'
  35  'z+1/2, -x+1/2, -y+1/2'
  36  '-z+1/2, -y+1/2, x+1/2'
  37  '-z+1/2, x+1/2, -y+1/2'
  38  'z+1/2, y+1/2, x+1/2'
  39  '-z+1/2, -x+1/2, y+1/2'
  40  'z+1/2, -y+1/2, -x+1/2'
  41  'y+1/2, z+1/2, x+1/2'
  42  '-x+1/2, -z+1/2, y+1/2'
  43  '-y+1/2, z+1/2, -x+1/2'
  44  'x+1/2, -z+1/2, -y+1/2'
  45  '-y+1/2, -z+1/2, x+1/2'
  46  'x+1/2, z+1/2, y+1/2'
  47  'y+1/2, -z+1/2, -x+1/2'
  48  '-x+1/2, z+1/2, -y+1/2'
loop_
 _atom_site_type_symbol
 _atom_site_label
 _atom_site_symmetry_multiplicity
 _atom_site_fract_x
 _atom_site_fract_y
 _atom_site_fract_z
 _atom_site_occupancy
  Cu  Cu0  8  0.18698209  0.18698209  0.18698209  1
  Cu  Cu1  8  0.21603510  0.21603510  0.78396490  1
  Au  Au2  8  0.10120731  0.10120731  0.89879269  1
  Au  Au3  6  0.00000000  0.00000000  0.50000000  1
  Au  Au4  2  0.00000000  0.00000000  0.00000000  1
# generated using pymatgen
data_ID_84
_symmetry_space_group_name_H-M   P4_222
_cell_length_a   7.69912450
_cell_length_b   7.69912450
_cell_length_c   4.08411853
_cell_angle_alpha   90.00000000
_cell_angle_beta   90.00000000
_cell_angle_gamma   90.00000000
_symmetry_Int_Tables_number   93
_chemical_formula_structural   CuAu
_cell_volume   242.09232554
_cell_formula_units_Z   8
loop_
 _symmetry_equiv_pos_site_id
 _symmetry_equiv_pos_as_xyz
  1  'x, y, z'
  2  '-y, x, z+1/2'
  3  '-x, -y, z'
  4  'y, -x, z+1/2'
  5  'x, -y, -z'
  6  '-y, -x, -z+1/2'
  7  '-x, y, -z'
  8  'y, x, -z+1/2'
loop_
 _atom_site_type_symbol
 _atom_site_label
 _atom_site_symmetry_multiplicity
 _atom_site_fract_x
 _atom_site_fract_y
 _atom_site_fract_z
 _atom_site_occupancy
  Cu  Cu0  4  0.00000000  0.50000000  0.24392465  1
  Cu  Cu1  2  0.00000000  0.00000000  0.00000000  1
  Cu  Cu2  2  0.50000000  0.50000000  0.00000000  1
  Au  Au3  8  0.24433218  0.39424503  0.35847040  1
# generated using pymatgen
data_ID_85
_symmetry_space_group_name_H-M   P312
_cell_length_a   7.47194485
_cell_length_b   7.47194485
_cell_length_c   4.72564098
_cell_angle_alpha   90.00000000
_cell_angle_beta   90.00000000
_cell_angle_gamma   120.00000000
_symmetry_Int_Tables_number   149
_chemical_formula_structural   CuAu
_cell_volume   228.48551409
_cell_formula_units_Z   8
loop_
 _symmetry_equiv_pos_site_id
 _symmetry_equiv_pos_as_xyz
  1  'x, y, z'
  2  '-y, x-y, z'
  3  '-x+y, -x, z'
  4  '-y, -x, -z'
  5  '-x+y, y, -z'
  6  'x, x-y, -z'
loop_
 _atom_site_type_symbol
 _atom_site_label
 _atom_site_symmetry_multiplicity
 _atom_site_fract_x
 _atom_site_fract_y
 _atom_site_fract_z
 _atom_site_occupancy
  Cu  Cu0  6  0.12080679  0.50637454  0.85152193  1
  Cu  Cu1  2  0.33333333  0.66666667  0.25740105  1
  Au  Au2  6  0.49936815  0.17678176  0.65025184  1
  Au  Au3  1  0.00000000  0.00000000  0.50000000  1
  Au  Au4  1  0.66666667  0.33333333  0.50000000  1
# generated using pymatgen
data_ID_86
_symmetry_space_group_name_H-M   P2_1/c
_cell_length_a   5.31469876
_cell_length_b   7.90839946
_cell_length_c   6.27773191
_cell_angle_alpha   90.00000000
_cell_angle_beta   102.70799338
_cell_angle_gamma   90.00000000
_symmetry_Int_Tables_number   14
_chemical_formula_structural   CuAu
_cell_volume   257.39435038
_cell_formula_units_Z   8
loop_
 _symmetry_equiv_pos_site_id
 _symmetry_equiv_pos_as_xyz
  1  'x, y, z'
  2  '-x, -y, -z'
  3  '-x, y+1/2, -z+1/2'
  4  'x, -y+1/2, z+1/2'
loop_
 _atom_site_type_symbol
 _atom_site_label
 _atom_site_symmetry_multiplicity
 _atom_site_fract_x
 _atom_site_fract_y
 _atom_site_fract_z
 _atom_site_occupancy
  Cu  Cu0  4  0.07811585  0.07224935  0.77466526  1
  Cu  Cu1  4  0.41689112  0.14550355  0.30223458  1
  Au  Au2  4  0.26332847  0.00485635  0.07803188  1
  Au  Au3  4  0.36561974  0.62956181  0.87310045  1
# generated using pymatgen
data_ID_87
_symmetry_space_group_name_H-M   I-42d
_cell_length_a   4.37945157
_cell_length_b   4.37945157
_cell_length_c   21.16817557
_cell_angle_alpha   90.00000000
_cell_angle_beta   90.00000000
_cell_angle_gamma   90.00000000
_symmetry_Int_Tables_number   122
_chemical_formula_structural   CuAu
_cell_volume   405.99705718
_cell_formula_units_Z   16
loop_
 _symmetry_equiv_pos_site_id
 _symmetry_equiv_pos_as_xyz
  1  'x, y, z'
  2  'y, -x, -z'
  3  '-x, -y, z'
  4  '-y, x, -z'
  5  'x, -y+1/2, -z+1/4'
  6  'y, x+1/2, z+1/4'
  7  '-x, y+1/2, -z+1/4'
  8  '-y, -x+1/2, z+1/4'
  9  'x+1/2, y+1/2, z+1/2'
  10  'y+1/2, -x+1/2, -z+1/2'
  11  '-x+1/2, -y+1/2, z+1/2'
  12  '-y+1/2, x+1/2, -z+1/2'
  13  'x+1/2, -y, -z+3/4'
  14  'y+1/2, x, z+3/4'
  15  '-x+1/2, y, -z+3/4'
  16  '-y+1/2, -x, z+3/4'
loop_
 _atom_site_type_symbol
 _atom_site_label
 _atom_site_symmetry_multiplicity
 _atom_site_fract_x
 _atom_site_fract_y
 _atom_site_fract_z
 _atom_site_occupancy
  Cu  Cu0  16  0.00629104  0.67627630  0.50925223  1
  Au  Au1  8  0.13598440  0.25000000  0.12500000  1
  Au  Au2  4  0.00000000  0.00000000  0.00000000  1
  Au  Au3  4  0.00000000  0.00000000  0.50000000  1
# generated using pymatgen
data_ID_88
_symmetry_space_group_name_H-M   I-4
_cell_length_a   5.68230683
_cell_length_b   5.68230683
_cell_length_c   14.74835854
_cell_angle_alpha   90.00000000
_cell_angle_beta   90.00000000
_cell_angle_gamma   90.00000000
_symmetry_Int_Tables_number   82
_chemical_formula_structural   CuAu
_cell_volume   476.20401033
_cell_formula_units_Z   16
loop_
 _symmetry_equiv_pos_site_id
 _symmetry_equiv_pos_as_xyz
  1  'x, y, z'
  2  'y, -x, -z'
  3  '-x, -y, z'
  4  '-y, x, -z'
  5  'x+1/2, y+1/2, z+1/2'
  6  'y+1/2, -x+1/2, -z+1/2'
  7  '-x+1/2, -y+1/2, z+1/2'
  8  '-y+1/2, x+1/2, -z+1/2'
loop_
 _atom_site_type_symbol
 _atom_site_label
 _atom_site_symmetry_multiplicity
 _atom_site_fract_x
 _atom_site_fract_y
 _atom_site_fract_z
 _atom_site_occupancy
  Cu  Cu0  8  0.15283678  0.81762545  0.57526113  1
  Cu  Cu1  4  0.00000000  0.00000000  0.12198735  1
  Cu  Cu2  2  0.00000000  0.50000000  0.25000000  1
  Cu  Cu3  2  0.00000000  0.50000000  0.75000000  1
  Au  Au4  8  0.09290478  0.21625480  0.13762362  1
  Au  Au5  4  0.00000000  0.50000000  0.15461120  1
  Au  Au6  4  0.00000000  0.50000000  0.63568472  1
# generated using pymatgen
data_ID_89
_symmetry_space_group_name_H-M   Pca2_1
_cell_length_a   8.38586459
_cell_length_b   7.55070949
_cell_length_c   3.80875116
_cell_angle_alpha   90.00000000
_cell_angle_beta   90.00000000
_cell_angle_gamma   90.00000000
_symmetry_Int_Tables_number   29
_chemical_formula_structural   CuAu
_cell_volume   241.16718072
_cell_formula_units_Z   8
loop_
 _symmetry_equiv_pos_site_id
 _symmetry_equiv_pos_as_xyz
  1  'x, y, z'
  2  '-x, -y, z+1/2'
  3  '-x+1/2, y, z+1/2'
  4  'x+1/2, -y, z'
loop_
 _atom_site_type_symbol
 _atom_site_label
 _atom_site_symmetry_multiplicity
 _atom_site_fract_x
 _atom_site_fract_y
 _atom_site_fract_z
 _atom_site_occupancy
  Cu  Cu0  4  0.03752685  0.58601516  0.14587042  1
  Cu  Cu1  4  0.07094350  0.68555221  0.44497396  1
  Au  Au2  4  0.07123774  0.03900577  0.71218994  1
  Au  Au3  4  0.08492662  0.04426073  0.23637125  1
# generated using pymatgen
data_ID_90
_symmetry_space_group_name_H-M   P-62m
_cell_length_a   8.36325736
_cell_length_b   8.36325736
_cell_length_c   3.66662170
_cell_angle_alpha   90.00000000
_cell_angle_beta   90.00000000
_cell_angle_gamma   120.00000000
_symmetry_Int_Tables_number   189
_chemical_formula_structural   CuAu
_cell_volume   222.09953958
_cell_formula_units_Z   8
loop_
 _symmetry_equiv_pos_site_id
 _symmetry_equiv_pos_as_xyz
  1  'x, y, z'
  2  '-x+y, -x, -z'
  3  '-y, x-y, z'
  4  'x, y, -z'
  5  '-x+y, -x, z'
  6  '-y, x-y, -z'
  7  'y, x, z'
  8  '-x, -x+y, -z'
  9  'x-y, -y, z'
  10  'y, x, -z'
  11  '-x, -x+y, z'
  12  'x-y, -y, -z'
loop_
 _atom_site_type_symbol
 _atom_site_label
 _atom_site_symmetry_multiplicity
 _atom_site_fract_x
 _atom_site_fract_y
 _atom_site_fract_z
 _atom_site_occupancy
  Cu  Cu0  6  0.24749763  0.52157798  0.00000000  1
  Cu  Cu1  2  0.33333333  0.66666667  0.50000000  1
  Au  Au2  3  0.00000000  0.45069209  0.50000000  1
  Au  Au3  3  0.00000000  0.50982050  0.00000000  1
  Au  Au4  1  0.00000000  0.00000000  0.00000000  1
  Au  Au5  1  0.00000000  0.00000000  0.50000000  1
# generated using pymatgen
data_ID_91
_symmetry_space_group_name_H-M   P4_2
_cell_length_a   7.84316479
_cell_length_b   7.84316479
_cell_length_c   3.47803424
_cell_angle_alpha   90.00000000
_cell_angle_beta   90.00000000
_cell_angle_gamma   90.00000000
_symmetry_Int_Tables_number   77
_chemical_formula_structural   CuAu
_cell_volume   213.95208998
_cell_formula_units_Z   8
loop_
 _symmetry_equiv_pos_site_id
 _symmetry_equiv_pos_as_xyz
  1  'x, y, z'
  2  '-y, x, z+1/2'
  3  '-x, -y, z'
  4  'y, -x, z+1/2'
loop_
 _atom_site_type_symbol
 _atom_site_label
 _atom_site_symmetry_multiplicity
 _atom_site_fract_x
 _atom_site_fract_y
 _atom_site_fract_z
 _atom_site_occupancy
  Cu  Cu0  4  0.33657230  0.48935723  0.49290902  1
  Cu  Cu1  2  0.00000000  0.50000000  0.65729953  1
  Cu  Cu2  2  0.50000000  0.50000000  0.31359183  1
  Au  Au3  4  0.03396715  0.88222542  0.55348525  1
  Au  Au4  4  0.14060138  0.59364111  0.35356511  1
# generated using pymatgen
data_ID_92
_symmetry_space_group_name_H-M   F222
_cell_length_a   6.17974457
_cell_length_b   11.23916372
_cell_length_c   11.62612606
_cell_angle_alpha   90.00000000
_cell_angle_beta   90.00000000
_cell_angle_gamma   90.00000000
_symmetry_Int_Tables_number   22
_chemical_formula_structural   CuAu
_cell_volume   807.49445678
_cell_formula_units_Z   32
loop_
 _symmetry_equiv_pos_site_id
 _symmetry_equiv_pos_as_xyz
  1  'x, y, z'
  2  '-x, -y, z'
  3  'x, -y, -z'
  4  '-x, y, -z'
  5  'x+1/2, y, z+1/2'
  6  '-x+1/2, -y, z+1/2'
  7  'x+1/2, -y, -z+1/2'
  8  '-x+1/2, y, -z+1/2'
  9  'x+1/2, y+1/2, z'
  10  '-x+1/2, -y+1/2, z'
  11  'x+1/2, -y+1/2, -z'
  12  '-x+1/2, y+1/2, -z'
  13  'x, y+1/2, z+1/2'
  14  '-x, -y+1/2, z+1/2'
  15  'x, -y+1/2, -z+1/2'
  16  '-x, y+1/2, -z+1/2'
loop_
 _atom_site_type_symbol
 _atom_site_label
 _atom_site_symmetry_multiplicity
 _atom_site_fract_x
 _atom_site_fract_y
 _atom_site_fract_z
 _atom_site_occupancy
  Cu  Cu0  16  0.11836174  0.15194509  0.64480402  1
  Cu  Cu1  8  0.13373323  0.25000000  0.75000000  1
  Cu  Cu2  8  0.25000000  0.25000000  0.09063596  1
  Au  Au3  16  0.06980483  0.20890047  0.91697838  1
  Au  Au4  8  0.25000000  0.17874941  0.25000000  1
  Au  Au5  4  0.00000000  0.00000000  0.00000000  1
  Au  Au6  4  0.00000000  0.00000000  0.50000000  1
# generated using pymatgen
data_ID_93
_symmetry_space_group_name_H-M   R3m
_cell_length_a   8.34736952
_cell_length_b   8.34736952
_cell_length_c   9.56437368
_cell_angle_alpha   90.00000000
_cell_angle_beta   90.00000000
_cell_angle_gamma   120.00000000
_symmetry_Int_Tables_number   160
_chemical_formula_structural   CuAu
_cell_volume   577.14700406
_cell_formula_units_Z   24
loop_
 _symmetry_equiv_pos_site_id
 _symmetry_equiv_pos_as_xyz
  1  'x, y, z'
  2  '-y, x-y, z'
  3  '-x+y, -x, z'
  4  '-y, -x, z'
  5  '-x+y, y, z'
  6  'x, x-y, z'
  7  'x+2/3, y+1/3, z+1/3'
  8  '-y+2/3, x-y+1/3, z+1/3'
  9  '-x+y+2/3, -x+1/3, z+1/3'
  10  '-y+2/3, -x+1/3, z+1/3'
  11  '-x+y+2/3, y+1/3, z+1/3'
  12  'x+2/3, x-y+1/3, z+1/3'
  13  'x+1/3, y+2/3, z+2/3'
  14  '-y+1/3, x-y+2/3, z+2/3'
  15  '-x+y+1/3, -x+2/3, z+2/3'
  16  '-y+1/3, -x+2/3, z+2/3'
  17  '-x+y+1/3, y+2/3, z+2/3'
  18  'x+1/3, x-y+2/3, z+2/3'
loop_
 _atom_site_type_symbol
 _atom_site_label
 _atom_site_symmetry_multiplicity
 _atom_site_fract_x
 _atom_site_fract_y
 _atom_site_fract_z
 _atom_site_occupancy
  Cu  Cu0  9  0.00857135  0.50428567  0.85113230  1
  Cu  Cu1  9  0.10029718  0.55014859  0.37483194  1
  Cu  Cu2  3  0.00000000  0.00000000  0.00883067  1
  Cu  Cu3  3  0.00000000  0.00000000  0.49693225  1
  Au  Au4  9  0.10811108  0.55405554  0.19946487  1
  Au  Au5  9  0.19601869  0.39203739  0.90011658  1
  Au  Au6  3  0.00000000  0.00000000  0.71524384  1
  Au  Au7  3  0.00000000  0.00000000  0.86173121  1
# generated using pymatgen
data_ID_94
_symmetry_space_group_name_H-M   P3m1
_cell_length_a   5.16773032
_cell_length_b   5.16773032
_cell_length_c   11.02927128
_cell_angle_alpha   90.00000000
_cell_angle_beta   90.00000000
_cell_angle_gamma   120.00000000
_symmetry_Int_Tables_number   156
_chemical_formula_structural   CuAu
_cell_volume   255.08042652
_cell_formula_units_Z   8
loop_
 _symmetry_equiv_pos_site_id
 _symmetry_equiv_pos_as_xyz
  1  'x, y, z'
  2  '-y, x-y, z'
  3  '-x+y, -x, z'
  4  '-y, -x, z'
  5  '-x+y, y, z'
  6  'x, x-y, z'
loop_
 _atom_site_type_symbol
 _atom_site_label
 _atom_site_symmetry_multiplicity
 _atom_site_fract_x
 _atom_site_fract_y
 _atom_site_fract_z
 _atom_site_occupancy
  Cu  Cu0  3  0.19587144  0.39174289  0.51284895  1
  Cu  Cu1  1  0.00000000  0.00000000  0.80585274  1
  Cu  Cu2  1  0.33333333  0.66666667  0.61628278  1
  Cu  Cu3  1  0.66666667  0.33333333  0.04165899  1
  Cu  Cu4  1  0.66666667  0.33333333  0.39181653  1
  Cu  Cu5  1  0.66666667  0.33333333  0.74870796  1
  Au  Au6  3  0.06097259  0.53048630  0.12049236  1
  Au  Au7  3  0.34892855  0.17446427  0.18691100  1
  Au  Au8  1  0.33333333  0.66666667  0.20322585  1
  Au  Au9  1  0.66666667  0.33333333  0.60153304  1
# generated using pymatgen
data_ID_95
_symmetry_space_group_name_H-M   Iba2
_cell_length_a   6.97610278
_cell_length_b   10.27257520
_cell_length_c   7.19576194
_cell_angle_alpha   90.00000000
_cell_angle_beta   90.00000000
_cell_angle_gamma   90.00000000
_symmetry_Int_Tables_number   45
_chemical_formula_structural   CuAu
_cell_volume   515.66658050
_cell_formula_units_Z   16
loop_
 _symmetry_equiv_pos_site_id
 _symmetry_equiv_pos_as_xyz
  1  'x, y, z'
  2  '-x, -y, z'
  3  '-x, y, z+1/2'
  4  'x, -y, z+1/2'
  5  'x+1/2, y+1/2, z+1/2'
  6  '-x+1/2, -y+1/2, z+1/2'
  7  '-x+1/2, y+1/2, z'
  8  'x+1/2, -y+1/2, z'
loop_
 _atom_site_type_symbol
 _atom_site_label
 _atom_site_symmetry_multiplicity
 _atom_site_fract_x
 _atom_site_fract_y
 _atom_site_fract_z
 _atom_site_occupancy
  Cu  Cu0  8  0.10237655  0.37119486  0.32065610  1
  Cu  Cu1  4  0.00000000  0.00000000  0.20907974  1
  Cu  Cu2  4  0.00000000  0.50000000  0.22967049  1
  Au  Au3  8  0.02614268  0.27672708  0.43948565  1
  Au  Au4  8  0.23585269  0.42176672  0.82190528  1
# generated using pymatgen
data_ID_96
_symmetry_space_group_name_H-M   P3m1
_cell_length_a   3.82718301
_cell_length_b   3.82718301
_cell_length_c   19.40115120
_cell_angle_alpha   90.00000000
_cell_angle_beta   90.00000000
_cell_angle_gamma   120.00000000
_symmetry_Int_Tables_number   156
_chemical_formula_structural   CuAu
_cell_volume   246.10282127
_cell_formula_units_Z   8
loop_
 _symmetry_equiv_pos_site_id
 _symmetry_equiv_pos_as_xyz
  1  'x, y, z'
  2  '-y, x-y, z'
  3  '-x+y, -x, z'
  4  '-y, -x, z'
  5  '-x+y, y, z'
  6  'x, x-y, z'
loop_
 _atom_site_type_symbol
 _atom_site_label
 _atom_site_symmetry_multiplicity
 _atom_site_fract_x
 _atom_site_fract_y
 _atom_site_fract_z
 _atom_site_occupancy
  Cu  Cu0  3  0.16885854  0.33771709  0.80958310  1
  Cu  Cu1  3  0.17301784  0.82698216  0.43173730  1
  Cu  Cu2  1  0.33333333  0.66666667  0.12503381  1
  Cu  Cu3  1  0.33333333  0.66666667  0.26120360  1
  Au  Au4  3  0.39445846  0.19722923  0.13571083  1
  Au  Au5  1  0.00000000  0.00000000  0.77021717  1
  Au  Au6  1  0.33333333  0.66666667  0.36153528  1
  Au  Au7  1  0.33333333  0.66666667  0.73495010  1
  Au  Au8  1  0.33333333  0.66666667  0.86553671  1
  Au  Au9  1  0.66666667  0.33333333  0.35935554  1
# generated using pymatgen
data_ID_97
_symmetry_space_group_name_H-M   P4_2/mmc
_cell_length_a   4.74308436
_cell_length_b   4.74308436
_cell_length_c   8.76220065
_cell_angle_alpha   90.00000000
_cell_angle_beta   90.00000000
_cell_angle_gamma   90.00000000
_symmetry_Int_Tables_number   131
_chemical_formula_structural   CuAu
_cell_volume   197.12190723
_cell_formula_units_Z   8
loop_
 _symmetry_equiv_pos_site_id
 _symmetry_equiv_pos_as_xyz
  1  'x, y, z'
  2  '-x, -y, -z'
  3  '-y, x, z+1/2'
  4  'y, -x, -z+1/2'
  5  '-x, -y, z'
  6  'x, y, -z'
  7  'y, -x, z+1/2'
  8  '-y, x, -z+1/2'
  9  'x, -y, -z'
  10  '-x, y, z'
  11  '-y, -x, -z+1/2'
  12  'y, x, z+1/2'
  13  '-x, y, -z'
  14  'x, -y, z'
  15  'y, x, -z+1/2'
  16  '-y, -x, z+1/2'
loop_
 _atom_site_type_symbol
 _atom_site_label
 _atom_site_symmetry_multiplicity
 _atom_site_fract_x
 _atom_site_fract_y
 _atom_site_fract_z
 _atom_site_occupancy
  Cu  Cu0  4  0.50000000  0.50000000  0.14250939  1
  Cu  Cu1  2  0.00000000  0.00000000  0.00000000  1
  Cu  Cu2  2  0.00000000  0.50000000  0.50000000  1
  Au  Au3  4  0.00000000  0.50000000  0.29125194  1
  Au  Au4  2  0.00000000  0.00000000  0.25000000  1
  Au  Au5  2  0.00000000  0.50000000  0.00000000  1
# generated using pymatgen
data_ID_98
_symmetry_space_group_name_H-M   Pccn
_cell_length_a   5.74275718
_cell_length_b   5.86007148
_cell_length_c   5.82542696
_cell_angle_alpha   90.00000000
_cell_angle_beta   90.00000000
_cell_angle_gamma   90.00000000
_symmetry_Int_Tables_number   56
_chemical_formula_structural   CuAu
_cell_volume   196.04290451
_cell_formula_units_Z   8
loop_
 _symmetry_equiv_pos_site_id
 _symmetry_equiv_pos_as_xyz
  1  'x, y, z'
  2  '-x, -y, -z'
  3  '-x+1/2, -y+1/2, z'
  4  'x+1/2, y+1/2, -z'
  5  'x+1/2, -y, -z+1/2'
  6  '-x+1/2, y, z+1/2'
  7  '-x, y+1/2, -z+1/2'
  8  'x, -y+1/2, z+1/2'
loop_
 _atom_site_type_symbol
 _atom_site_label
 _atom_site_symmetry_multiplicity
 _atom_site_fract_x
 _atom_site_fract_y
 _atom_site_fract_z
 _atom_site_occupancy
  Cu  Cu0  4  0.00000000  0.00000000  0.50000000  1
  Cu  Cu1  4  0.25000000  0.25000000  0.34021792  1
  Au  Au2  8  0.23935663  0.60748080  0.02130225  1
# generated using pymatgen
data_ID_99
_symmetry_space_group_name_H-M   Immm
_cell_length_a   6.43622330
_cell_length_b   7.91282916
_cell_length_c   8.45259816
_cell_angle_alpha   90.00000000
_cell_angle_beta   90.00000000
_cell_angle_gamma   90.00000000
_symmetry_Int_Tables_number   71
_chemical_formula_structural   CuAu
_cell_volume   430.48013572
_cell_formula_units_Z   16
loop_
 _symmetry_equiv_pos_site_id
 _symmetry_equiv_pos_as_xyz
  1  'x, y, z'
  2  '-x, -y, -z'
  3  '-x, -y, z'
  4  'x, y, -z'
  5  'x, -y, -z'
  6  '-x, y, z'
  7  '-x, y, -z'
  8  'x, -y, z'
  9  'x+1/2, y+1/2, z+1/2'
  10  '-x+1/2, -y+1/2, -z+1/2'
  11  '-x+1/2, -y+1/2, z+1/2'
  12  'x+1/2, y+1/2, -z+1/2'
  13  'x+1/2, -y+1/2, -z+1/2'
  14  '-x+1/2, y+1/2, z+1/2'
  15  '-x+1/2, y+1/2, -z+1/2'
  16  'x+1/2, -y+1/2, z+1/2'
loop_
 _atom_site_type_symbol
 _atom_site_label
 _atom_site_symmetry_multiplicity
 _atom_site_fract_x
 _atom_site_fract_y
 _atom_site_fract_z
 _atom_site_occupancy
  Cu  Cu0  8  0.15053598  0.34724584  0.00000000  1
  Cu  Cu1  4  0.22145916  0.00000000  0.00000000  1
  Cu  Cu2  2  0.00000000  0.50000000  0.00000000  1
  Cu  Cu3  2  0.00000000  0.50000000  0.50000000  1
  Au  Au4  8  0.25000000  0.25000000  0.25000000  1
  Au  Au5  4  0.00000000  0.00000000  0.38912219  1
  Au  Au6  4  0.00000000  0.50000000  0.16007171  1
