# generated using pymatgen
data_ID_0
_symmetry_space_group_name_H-M   Pm-3m
_cell_length_a   2.70684875
_cell_length_b   2.70684875
_cell_length_c   2.70684875
_cell_angle_alpha   90.00000000
_cell_angle_beta   90.00000000
_cell_angle_gamma   90.00000000
_symmetry_Int_Tables_number   221
_chemical_formula_structural   Au
_cell_volume   19.83316238
_cell_formula_units_Z   1
loop_
 _symmetry_equiv_pos_site_id
 _symmetry_equiv_pos_as_xyz
  1  'x, y, z'
  2  '-x, -y, -z'
  3  '-y, x, z'
  4  'y, -x, -z'
  5  '-x, -y, z'
  6  'x, y, -z'
  7  'y, -x, z'
  8  '-y, x, -z'
  9  'x, -y, -z'
  10  '-x, y, z'
  11  '-y, -x, -z'
  12  'y, x, z'
  13  '-x, y, -z'
  14  'x, -y, z'
  15  'y, x, -z'
  16  '-y, -x, z'
  17  'z, x, y'
  18  '-z, -x, -y'
  19  'z, -y, x'
  20  '-z, y, -x'
  21  'z, -x, -y'
  22  '-z, x, y'
  23  'z, y, -x'
  24  '-z, -y, x'
  25  '-z, x, -y'
  26  'z, -x, y'
  27  '-z, -y, -x'
  28  'z, y, x'
  29  '-z, -x, y'
  30  'z, x, -y'
  31  '-z, y, x'
  32  'z, -y, -x'
  33  'y, z, x'
  34  '-y, -z, -x'
  35  'x, z, -y'
  36  '-x, -z, y'
  37  '-y, z, -x'
  38  'y, -z, x'
  39  '-x, z, y'
  40  'x, -z, -y'
  41  '-y, -z, x'
  42  'y, z, -x'
  43  '-x, -z, -y'
  44  'x, z, y'
  45  'y, -z, -x'
  46  '-y, z, x'
  47  'x, -z, y'
  48  '-x, z, -y'
loop_
 _atom_site_type_symbol
 _atom_site_label
 _atom_site_symmetry_multiplicity
 _atom_site_fract_x
 _atom_site_fract_y
 _atom_site_fract_z
 _atom_site_occupancy
  Au  Au0  1  0.00000000  0.00000000  0.00000000  1
# generated using pymatgen
data_ID_1
_symmetry_space_group_name_H-M   P6/mmm
_cell_length_a   2.79250158
_cell_length_b   2.79250158
_cell_length_c   2.72847209
_cell_angle_alpha   90.00000000
_cell_angle_beta   90.00000000
_cell_angle_gamma   120.00000000
_symmetry_Int_Tables_number   191
_chemical_formula_structural   Au
_cell_volume   18.42625180
_cell_formula_units_Z   1
loop_
 _symmetry_equiv_pos_site_id
 _symmetry_equiv_pos_as_xyz
  1  'x, y, z'
  2  '-x, -y, -z'
  3  'x-y, x, z'
  4  '-x+y, -x, -z'
  5  '-y, x-y, z'
  6  'y, -x+y, -z'
  7  '-x, -y, z'
  8  'x, y, -z'
  9  '-x+y, -x, z'
  10  'x-y, x, -z'
  11  'y, -x+y, z'
  12  '-y, x-y, -z'
  13  '-y, -x, -z'
  14  'y, x, z'
  15  '-x, -x+y, -z'
  16  'x, x-y, z'
  17  '-x+y, y, -z'
  18  'x-y, -y, z'
  19  'y, x, -z'
  20  '-y, -x, z'
  21  'x, x-y, -z'
  22  '-x, -x+y, z'
  23  'x-y, -y, -z'
  24  '-x+y, y, z'
loop_
 _atom_site_type_symbol
 _atom_site_label
 _atom_site_symmetry_multiplicity
 _atom_site_fract_x
 _atom_site_fract_y
 _atom_site_fract_z
 _atom_site_occupancy
  Au  Au0  1  0.00000000  0.00000000  0.50000000  1
# generated using pymatgen
data_ID_2
_symmetry_space_group_name_H-M   Fddd
_cell_length_a   5.14196217
_cell_length_b   9.11152672
_cell_length_c   18.63221871
_cell_angle_alpha   90.00000000
_cell_angle_beta   90.00000000
_cell_angle_gamma   90.00000000
_symmetry_Int_Tables_number   70
_chemical_formula_structural   Au
_cell_volume   872.94042023
_cell_formula_units_Z   32
loop_
 _symmetry_equiv_pos_site_id
 _symmetry_equiv_pos_as_xyz
  1  'x, y, z'
  2  '-x, -y, z'
  3  'x, -y, -z'
  4  '-x, y, -z'
  5  '-x+1/4, -y+1/4, -z+1/4'
  6  'x+1/4, y+1/4, -z+1/4'
  7  '-x+1/4, y+1/4, z+1/4'
  8  'x+1/4, -y+1/4, z+1/4'
  9  'x+1/2, y, z+1/2'
  10  '-x+1/2, -y, z+1/2'
  11  'x+1/2, -y, -z+1/2'
  12  '-x+1/2, y, -z+1/2'
  13  '-x+3/4, -y+1/4, -z+3/4'
  14  'x+3/4, y+1/4, -z+3/4'
  15  '-x+3/4, y+1/4, z+3/4'
  16  'x+3/4, -y+1/4, z+3/4'
  17  'x+1/2, y+1/2, z'
  18  '-x+1/2, -y+1/2, z'
  19  'x+1/2, -y+1/2, -z'
  20  '-x+1/2, y+1/2, -z'
  21  '-x+3/4, -y+3/4, -z+1/4'
  22  'x+3/4, y+3/4, -z+1/4'
  23  '-x+3/4, y+3/4, z+1/4'
  24  'x+3/4, -y+3/4, z+1/4'
  25  'x, y+1/2, z+1/2'
  26  '-x, -y+1/2, z+1/2'
  27  'x, -y+1/2, -z+1/2'
  28  '-x, y+1/2, -z+1/2'
  29  '-x+1/4, -y+3/4, -z+3/4'
  30  'x+1/4, y+3/4, -z+3/4'
  31  '-x+1/4, y+3/4, z+3/4'
  32  'x+1/4, -y+3/4, z+3/4'
loop_
 _atom_site_type_symbol
 _atom_site_label
 _atom_site_symmetry_multiplicity
 _atom_site_fract_x
 _atom_site_fract_y
 _atom_site_fract_z
 _atom_site_occupancy
  Au  Au0  16  0.12500000  0.12500000  0.62500000  1
  Au  Au1  8  0.00000000  0.00000000  0.00000000  1
  Au  Au2  8  0.00000000  0.00000000  0.50000000  1
# generated using pymatgen
data_ID_3
_symmetry_space_group_name_H-M   P6/mmm
_cell_length_a   2.79123178
_cell_length_b   2.79123178
_cell_length_c   2.72904176
_cell_angle_alpha   90.00000000
_cell_angle_beta   90.00000000
_cell_angle_gamma   120.00000000
_symmetry_Int_Tables_number   191
_chemical_formula_structural   Au
_cell_volume   18.41334181
_cell_formula_units_Z   1
loop_
 _symmetry_equiv_pos_site_id
 _symmetry_equiv_pos_as_xyz
  1  'x, y, z'
  2  '-x, -y, -z'
  3  'x-y, x, z'
  4  '-x+y, -x, -z'
  5  '-y, x-y, z'
  6  'y, -x+y, -z'
  7  '-x, -y, z'
  8  'x, y, -z'
  9  '-x+y, -x, z'
  10  'x-y, x, -z'
  11  'y, -x+y, z'
  12  '-y, x-y, -z'
  13  '-y, -x, -z'
  14  'y, x, z'
  15  '-x, -x+y, -z'
  16  'x, x-y, z'
  17  '-x+y, y, -z'
  18  'x-y, -y, z'
  19  'y, x, -z'
  20  '-y, -x, z'
  21  'x, x-y, -z'
  22  '-x, -x+y, z'
  23  'x-y, -y, -z'
  24  '-x+y, y, z'
loop_
 _atom_site_type_symbol
 _atom_site_label
 _atom_site_symmetry_multiplicity
 _atom_site_fract_x
 _atom_site_fract_y
 _atom_site_fract_z
 _atom_site_occupancy
  Au  Au0  1  0.00000000  0.00000000  0.50000000  1
# generated using pymatgen
data_ID_4
_symmetry_space_group_name_H-M   P6_3/mmc
_cell_length_a   2.86786499
_cell_length_b   2.86786499
_cell_length_c   4.68272858
_cell_angle_alpha   90.00000000
_cell_angle_beta   90.00000000
_cell_angle_gamma   120.00000000
_symmetry_Int_Tables_number   194
_chemical_formula_structural   Au
_cell_volume   33.35393070
_cell_formula_units_Z   2
loop_
 _symmetry_equiv_pos_site_id
 _symmetry_equiv_pos_as_xyz
  1  'x, y, z'
  2  '-x, -y, -z'
  3  'x-y, x, z+1/2'
  4  '-x+y, -x, -z+1/2'
  5  '-y, x-y, z'
  6  'y, -x+y, -z'
  7  '-x, -y, z+1/2'
  8  'x, y, -z+1/2'
  9  '-x+y, -x, z'
  10  'x-y, x, -z'
  11  'y, -x+y, z+1/2'
  12  '-y, x-y, -z+1/2'
  13  '-y, -x, -z+1/2'
  14  'y, x, z+1/2'
  15  '-x, -x+y, -z'
  16  'x, x-y, z'
  17  '-x+y, y, -z+1/2'
  18  'x-y, -y, z+1/2'
  19  'y, x, -z'
  20  '-y, -x, z'
  21  'x, x-y, -z+1/2'
  22  '-x, -x+y, z+1/2'
  23  'x-y, -y, -z'
  24  '-x+y, y, z'
loop_
 _atom_site_type_symbol
 _atom_site_label
 _atom_site_symmetry_multiplicity
 _atom_site_fract_x
 _atom_site_fract_y
 _atom_site_fract_z
 _atom_site_occupancy
  Au  Au0  2  0.33333333  0.66666667  0.25000000  1
# generated using pymatgen
data_ID_5
_symmetry_space_group_name_H-M   Fm-3m
_cell_length_a   4.05598150
_cell_length_b   4.05598150
_cell_length_c   4.05598150
_cell_angle_alpha   90.00000000
_cell_angle_beta   90.00000000
_cell_angle_gamma   90.00000000
_symmetry_Int_Tables_number   225
_chemical_formula_structural   Au
_cell_volume   66.72489451
_cell_formula_units_Z   4
loop_
 _symmetry_equiv_pos_site_id
 _symmetry_equiv_pos_as_xyz
  1  'x, y, z'
  2  '-x, -y, -z'
  3  '-y, x, z'
  4  'y, -x, -z'
  5  '-x, -y, z'
  6  'x, y, -z'
  7  'y, -x, z'
  8  '-y, x, -z'
  9  'x, -y, -z'
  10  '-x, y, z'
  11  '-y, -x, -z'
  12  'y, x, z'
  13  '-x, y, -z'
  14  'x, -y, z'
  15  'y, x, -z'
  16  '-y, -x, z'
  17  'z, x, y'
  18  '-z, -x, -y'
  19  'z, -y, x'
  20  '-z, y, -x'
  21  'z, -x, -y'
  22  '-z, x, y'
  23  'z, y, -x'
  24  '-z, -y, x'
  25  '-z, x, -y'
  26  'z, -x, y'
  27  '-z, -y, -x'
  28  'z, y, x'
  29  '-z, -x, y'
  30  'z, x, -y'
  31  '-z, y, x'
  32  'z, -y, -x'
  33  'y, z, x'
  34  '-y, -z, -x'
  35  'x, z, -y'
  36  '-x, -z, y'
  37  '-y, z, -x'
  38  'y, -z, x'
  39  '-x, z, y'
  40  'x, -z, -y'
  41  '-y, -z, x'
  42  'y, z, -x'
  43  '-x, -z, -y'
  44  'x, z, y'
  45  'y, -z, -x'
  46  '-y, z, x'
  47  'x, -z, y'
  48  '-x, z, -y'
  49  'x+1/2, y+1/2, z'
  50  '-x+1/2, -y+1/2, -z'
  51  '-y+1/2, x+1/2, z'
  52  'y+1/2, -x+1/2, -z'
  53  '-x+1/2, -y+1/2, z'
  54  'x+1/2, y+1/2, -z'
  55  'y+1/2, -x+1/2, z'
  56  '-y+1/2, x+1/2, -z'
  57  'x+1/2, -y+1/2, -z'
  58  '-x+1/2, y+1/2, z'
  59  '-y+1/2, -x+1/2, -z'
  60  'y+1/2, x+1/2, z'
  61  '-x+1/2, y+1/2, -z'
  62  'x+1/2, -y+1/2, z'
  63  'y+1/2, x+1/2, -z'
  64  '-y+1/2, -x+1/2, z'
  65  'z+1/2, x+1/2, y'
  66  '-z+1/2, -x+1/2, -y'
  67  'z+1/2, -y+1/2, x'
  68  '-z+1/2, y+1/2, -x'
  69  'z+1/2, -x+1/2, -y'
  70  '-z+1/2, x+1/2, y'
  71  'z+1/2, y+1/2, -x'
  72  '-z+1/2, -y+1/2, x'
  73  '-z+1/2, x+1/2, -y'
  74  'z+1/2, -x+1/2, y'
  75  '-z+1/2, -y+1/2, -x'
  76  'z+1/2, y+1/2, x'
  77  '-z+1/2, -x+1/2, y'
  78  'z+1/2, x+1/2, -y'
  79  '-z+1/2, y+1/2, x'
  80  'z+1/2, -y+1/2, -x'
  81  'y+1/2, z+1/2, x'
  82  '-y+1/2, -z+1/2, -x'
  83  'x+1/2, z+1/2, -y'
  84  '-x+1/2, -z+1/2, y'
  85  '-y+1/2, z+1/2, -x'
  86  'y+1/2, -z+1/2, x'
  87  '-x+1/2, z+1/2, y'
  88  'x+1/2, -z+1/2, -y'
  89  '-y+1/2, -z+1/2, x'
  90  'y+1/2, z+1/2, -x'
  91  '-x+1/2, -z+1/2, -y'
  92  'x+1/2, z+1/2, y'
  93  'y+1/2, -z+1/2, -x'
  94  '-y+1/2, z+1/2, x'
  95  'x+1/2, -z+1/2, y'
  96  '-x+1/2, z+1/2, -y'
  97  'x+1/2, y, z+1/2'
  98  '-x+1/2, -y, -z+1/2'
  99  '-y+1/2, x, z+1/2'
  100  'y+1/2, -x, -z+1/2'
  101  '-x+1/2, -y, z+1/2'
  102  'x+1/2, y, -z+1/2'
  103  'y+1/2, -x, z+1/2'
  104  '-y+1/2, x, -z+1/2'
  105  'x+1/2, -y, -z+1/2'
  106  '-x+1/2, y, z+1/2'
  107  '-y+1/2, -x, -z+1/2'
  108  'y+1/2, x, z+1/2'
  109  '-x+1/2, y, -z+1/2'
  110  'x+1/2, -y, z+1/2'
  111  'y+1/2, x, -z+1/2'
  112  '-y+1/2, -x, z+1/2'
  113  'z+1/2, x, y+1/2'
  114  '-z+1/2, -x, -y+1/2'
  115  'z+1/2, -y, x+1/2'
  116  '-z+1/2, y, -x+1/2'
  117  'z+1/2, -x, -y+1/2'
  118  '-z+1/2, x, y+1/2'
  119  'z+1/2, y, -x+1/2'
  120  '-z+1/2, -y, x+1/2'
  121  '-z+1/2, x, -y+1/2'
  122  'z+1/2, -x, y+1/2'
  123  '-z+1/2, -y, -x+1/2'
  124  'z+1/2, y, x+1/2'
  125  '-z+1/2, -x, y+1/2'
  126  'z+1/2, x, -y+1/2'
  127  '-z+1/2, y, x+1/2'
  128  'z+1/2, -y, -x+1/2'
  129  'y+1/2, z, x+1/2'
  130  '-y+1/2, -z, -x+1/2'
  131  'x+1/2, z, -y+1/2'
  132  '-x+1/2, -z, y+1/2'
  133  '-y+1/2, z, -x+1/2'
  134  'y+1/2, -z, x+1/2'
  135  '-x+1/2, z, y+1/2'
  136  'x+1/2, -z, -y+1/2'
  137  '-y+1/2, -z, x+1/2'
  138  'y+1/2, z, -x+1/2'
  139  '-x+1/2, -z, -y+1/2'
  140  'x+1/2, z, y+1/2'
  141  'y+1/2, -z, -x+1/2'
  142  '-y+1/2, z, x+1/2'
  143  'x+1/2, -z, y+1/2'
  144  '-x+1/2, z, -y+1/2'
  145  'x, y+1/2, z+1/2'
  146  '-x, -y+1/2, -z+1/2'
  147  '-y, x+1/2, z+1/2'
  148  'y, -x+1/2, -z+1/2'
  149  '-x, -y+1/2, z+1/2'
  150  'x, y+1/2, -z+1/2'
  151  'y, -x+1/2, z+1/2'
  152  '-y, x+1/2, -z+1/2'
  153  'x, -y+1/2, -z+1/2'
  154  '-x, y+1/2, z+1/2'
  155  '-y, -x+1/2, -z+1/2'
  156  'y, x+1/2, z+1/2'
  157  '-x, y+1/2, -z+1/2'
  158  'x, -y+1/2, z+1/2'
  159  'y, x+1/2, -z+1/2'
  160  '-y, -x+1/2, z+1/2'
  161  'z, x+1/2, y+1/2'
  162  '-z, -x+1/2, -y+1/2'
  163  'z, -y+1/2, x+1/2'
  164  '-z, y+1/2, -x+1/2'
  165  'z, -x+1/2, -y+1/2'
  166  '-z, x+1/2, y+1/2'
  167  'z, y+1/2, -x+1/2'
  168  '-z, -y+1/2, x+1/2'
  169  '-z, x+1/2, -y+1/2'
  170  'z, -x+1/2, y+1/2'
  171  '-z, -y+1/2, -x+1/2'
  172  'z, y+1/2, x+1/2'
  173  '-z, -x+1/2, y+1/2'
  174  'z, x+1/2, -y+1/2'
  175  '-z, y+1/2, x+1/2'
  176  'z, -y+1/2, -x+1/2'
  177  'y, z+1/2, x+1/2'
  178  '-y, -z+1/2, -x+1/2'
  179  'x, z+1/2, -y+1/2'
  180  '-x, -z+1/2, y+1/2'
  181  '-y, z+1/2, -x+1/2'
  182  'y, -z+1/2, x+1/2'
  183  '-x, z+1/2, y+1/2'
  184  'x, -z+1/2, -y+1/2'
  185  '-y, -z+1/2, x+1/2'
  186  'y, z+1/2, -x+1/2'
  187  '-x, -z+1/2, -y+1/2'
  188  'x, z+1/2, y+1/2'
  189  'y, -z+1/2, -x+1/2'
  190  '-y, z+1/2, x+1/2'
  191  'x, -z+1/2, y+1/2'
  192  '-x, z+1/2, -y+1/2'
loop_
 _atom_site_type_symbol
 _atom_site_label
 _atom_site_symmetry_multiplicity
 _atom_site_fract_x
 _atom_site_fract_y
 _atom_site_fract_z
 _atom_site_occupancy
  Au  Au0  4  0.00000000  0.00000000  0.00000000  1
# generated using pymatgen
data_ID_6
_symmetry_space_group_name_H-M   P-3m1
_cell_length_a   5.28277228
_cell_length_b   5.28277228
_cell_length_c   7.64376853
_cell_angle_alpha   90.00000000
_cell_angle_beta   90.00000000
_cell_angle_gamma   120.00000000
_symmetry_Int_Tables_number   164
_chemical_formula_structural   Au
_cell_volume   184.74042515
_cell_formula_units_Z   8
loop_
 _symmetry_equiv_pos_site_id
 _symmetry_equiv_pos_as_xyz
  1  'x, y, z'
  2  '-x, -y, -z'
  3  '-y, x-y, z'
  4  'y, -x+y, -z'
  5  '-x+y, -x, z'
  6  'x-y, x, -z'
  7  'y, x, -z'
  8  '-y, -x, z'
  9  'x-y, -y, -z'
  10  '-x+y, y, z'
  11  '-x, -x+y, -z'
  12  'x, x-y, z'
loop_
 _atom_site_type_symbol
 _atom_site_label
 _atom_site_symmetry_multiplicity
 _atom_site_fract_x
 _atom_site_fract_y
 _atom_site_fract_z
 _atom_site_occupancy
  Au  Au0  3  0.00000000  0.50000000  0.00000000  1
  Au  Au1  2  0.00000000  0.00000000  0.34210154  1
  Au  Au2  2  0.33333333  0.66666667  0.50151236  1
  Au  Au3  1  0.00000000  0.00000000  0.00000000  1
# generated using pymatgen
data_ID_7
_symmetry_space_group_name_H-M   P4/mmm
_cell_length_a   3.91951863
_cell_length_b   3.91951863
_cell_length_c   6.44396320
_cell_angle_alpha   90.00000000
_cell_angle_beta   90.00000000
_cell_angle_gamma   90.00000000
_symmetry_Int_Tables_number   123
_chemical_formula_structural   Au
_cell_volume   98.99619858
_cell_formula_units_Z   4
loop_
 _symmetry_equiv_pos_site_id
 _symmetry_equiv_pos_as_xyz
  1  'x, y, z'
  2  '-x, -y, -z'
  3  '-y, x, z'
  4  'y, -x, -z'
  5  '-x, -y, z'
  6  'x, y, -z'
  7  'y, -x, z'
  8  '-y, x, -z'
  9  'x, -y, -z'
  10  '-x, y, z'
  11  '-y, -x, -z'
  12  'y, x, z'
  13  '-x, y, -z'
  14  'x, -y, z'
  15  'y, x, -z'
  16  '-y, -x, z'
loop_
 _atom_site_type_symbol
 _atom_site_label
 _atom_site_symmetry_multiplicity
 _atom_site_fract_x
 _atom_site_fract_y
 _atom_site_fract_z
 _atom_site_occupancy
  Au  Au0  2  0.00000000  0.50000000  0.00000000  1
  Au  Au1  2  0.50000000  0.50000000  0.29654341  1
# generated using pymatgen
data_ID_8
_symmetry_space_group_name_H-M   Im-3m
_cell_length_a   8.30301416
_cell_length_b   8.30301416
_cell_length_c   8.30301416
_cell_angle_alpha   90.00000000
_cell_angle_beta   90.00000000
_cell_angle_gamma   90.00000000
_symmetry_Int_Tables_number   229
_chemical_formula_structural   Au
_cell_volume   572.41016207
_cell_formula_units_Z   16
loop_
 _symmetry_equiv_pos_site_id
 _symmetry_equiv_pos_as_xyz
  1  'x, y, z'
  2  '-x, -y, -z'
  3  '-y, x, z'
  4  'y, -x, -z'
  5  '-x, -y, z'
  6  'x, y, -z'
  7  'y, -x, z'
  8  '-y, x, -z'
  9  'x, -y, -z'
  10  '-x, y, z'
  11  '-y, -x, -z'
  12  'y, x, z'
  13  '-x, y, -z'
  14  'x, -y, z'
  15  'y, x, -z'
  16  '-y, -x, z'
  17  'z, x, y'
  18  '-z, -x, -y'
  19  'z, -y, x'
  20  '-z, y, -x'
  21  'z, -x, -y'
  22  '-z, x, y'
  23  'z, y, -x'
  24  '-z, -y, x'
  25  '-z, x, -y'
  26  'z, -x, y'
  27  '-z, -y, -x'
  28  'z, y, x'
  29  '-z, -x, y'
  30  'z, x, -y'
  31  '-z, y, x'
  32  'z, -y, -x'
  33  'y, z, x'
  34  '-y, -z, -x'
  35  'x, z, -y'
  36  '-x, -z, y'
  37  '-y, z, -x'
  38  'y, -z, x'
  39  '-x, z, y'
  40  'x, -z, -y'
  41  '-y, -z, x'
  42  'y, z, -x'
  43  '-x, -z, -y'
  44  'x, z, y'
  45  'y, -z, -x'
  46  '-y, z, x'
  47  'x, -z, y'
  48  '-x, z, -y'
  49  'x+1/2, y+1/2, z+1/2'
  50  '-x+1/2, -y+1/2, -z+1/2'
  51  '-y+1/2, x+1/2, z+1/2'
  52  'y+1/2, -x+1/2, -z+1/2'
  53  '-x+1/2, -y+1/2, z+1/2'
  54  'x+1/2, y+1/2, -z+1/2'
  55  'y+1/2, -x+1/2, z+1/2'
  56  '-y+1/2, x+1/2, -z+1/2'
  57  'x+1/2, -y+1/2, -z+1/2'
  58  '-x+1/2, y+1/2, z+1/2'
  59  '-y+1/2, -x+1/2, -z+1/2'
  60  'y+1/2, x+1/2, z+1/2'
  61  '-x+1/2, y+1/2, -z+1/2'
  62  'x+1/2, -y+1/2, z+1/2'
  63  'y+1/2, x+1/2, -z+1/2'
  64  '-y+1/2, -x+1/2, z+1/2'
  65  'z+1/2, x+1/2, y+1/2'
  66  '-z+1/2, -x+1/2, -y+1/2'
  67  'z+1/2, -y+1/2, x+1/2'
  68  '-z+1/2, y+1/2, -x+1/2'
  69  'z+1/2, -x+1/2, -y+1/2'
  70  '-z+1/2, x+1/2, y+1/2'
  71  'z+1/2, y+1/2, -x+1/2'
  72  '-z+1/2, -y+1/2, x+1/2'
  73  '-z+1/2, x+1/2, -y+1/2'
  74  'z+1/2, -x+1/2, y+1/2'
  75  '-z+1/2, -y+1/2, -x+1/2'
  76  'z+1/2, y+1/2, x+1/2'
  77  '-z+1/2, -x+1/2, y+1/2'
  78  'z+1/2, x+1/2, -y+1/2'
  79  '-z+1/2, y+1/2, x+1/2'
  80  'z+1/2, -y+1/2, -x+1/2'
  81  'y+1/2, z+1/2, x+1/2'
  82  '-y+1/2, -z+1/2, -x+1/2'
  83  'x+1/2, z+1/2, -y+1/2'
  84  '-x+1/2, -z+1/2, y+1/2'
  85  '-y+1/2, z+1/2, -x+1/2'
  86  'y+1/2, -z+1/2, x+1/2'
  87  '-x+1/2, z+1/2, y+1/2'
  88  'x+1/2, -z+1/2, -y+1/2'
  89  '-y+1/2, -z+1/2, x+1/2'
  90  'y+1/2, z+1/2, -x+1/2'
  91  '-x+1/2, -z+1/2, -y+1/2'
  92  'x+1/2, z+1/2, y+1/2'
  93  'y+1/2, -z+1/2, -x+1/2'
  94  '-y+1/2, z+1/2, x+1/2'
  95  'x+1/2, -z+1/2, y+1/2'
  96  '-x+1/2, z+1/2, -y+1/2'
loop_
 _atom_site_type_symbol
 _atom_site_label
 _atom_site_symmetry_multiplicity
 _atom_site_fract_x
 _atom_site_fract_y
 _atom_site_fract_z
 _atom_site_occupancy
  Au  Au0  16  0.15762616  0.15762616  0.15762616  1
# generated using pymatgen
data_ID_9
_symmetry_space_group_name_H-M   Fm-3m
_cell_length_a   4.05611568
_cell_length_b   4.05611568
_cell_length_c   4.05611568
_cell_angle_alpha   90.00000000
_cell_angle_beta   90.00000000
_cell_angle_gamma   90.00000000
_symmetry_Int_Tables_number   225
_chemical_formula_structural   Au
_cell_volume   66.73151690
_cell_formula_units_Z   4
loop_
 _symmetry_equiv_pos_site_id
 _symmetry_equiv_pos_as_xyz
  1  'x, y, z'
  2  '-x, -y, -z'
  3  '-y, x, z'
  4  'y, -x, -z'
  5  '-x, -y, z'
  6  'x, y, -z'
  7  'y, -x, z'
  8  '-y, x, -z'
  9  'x, -y, -z'
  10  '-x, y, z'
  11  '-y, -x, -z'
  12  'y, x, z'
  13  '-x, y, -z'
  14  'x, -y, z'
  15  'y, x, -z'
  16  '-y, -x, z'
  17  'z, x, y'
  18  '-z, -x, -y'
  19  'z, -y, x'
  20  '-z, y, -x'
  21  'z, -x, -y'
  22  '-z, x, y'
  23  'z, y, -x'
  24  '-z, -y, x'
  25  '-z, x, -y'
  26  'z, -x, y'
  27  '-z, -y, -x'
  28  'z, y, x'
  29  '-z, -x, y'
  30  'z, x, -y'
  31  '-z, y, x'
  32  'z, -y, -x'
  33  'y, z, x'
  34  '-y, -z, -x'
  35  'x, z, -y'
  36  '-x, -z, y'
  37  '-y, z, -x'
  38  'y, -z, x'
  39  '-x, z, y'
  40  'x, -z, -y'
  41  '-y, -z, x'
  42  'y, z, -x'
  43  '-x, -z, -y'
  44  'x, z, y'
  45  'y, -z, -x'
  46  '-y, z, x'
  47  'x, -z, y'
  48  '-x, z, -y'
  49  'x+1/2, y+1/2, z'
  50  '-x+1/2, -y+1/2, -z'
  51  '-y+1/2, x+1/2, z'
  52  'y+1/2, -x+1/2, -z'
  53  '-x+1/2, -y+1/2, z'
  54  'x+1/2, y+1/2, -z'
  55  'y+1/2, -x+1/2, z'
  56  '-y+1/2, x+1/2, -z'
  57  'x+1/2, -y+1/2, -z'
  58  '-x+1/2, y+1/2, z'
  59  '-y+1/2, -x+1/2, -z'
  60  'y+1/2, x+1/2, z'
  61  '-x+1/2, y+1/2, -z'
  62  'x+1/2, -y+1/2, z'
  63  'y+1/2, x+1/2, -z'
  64  '-y+1/2, -x+1/2, z'
  65  'z+1/2, x+1/2, y'
  66  '-z+1/2, -x+1/2, -y'
  67  'z+1/2, -y+1/2, x'
  68  '-z+1/2, y+1/2, -x'
  69  'z+1/2, -x+1/2, -y'
  70  '-z+1/2, x+1/2, y'
  71  'z+1/2, y+1/2, -x'
  72  '-z+1/2, -y+1/2, x'
  73  '-z+1/2, x+1/2, -y'
  74  'z+1/2, -x+1/2, y'
  75  '-z+1/2, -y+1/2, -x'
  76  'z+1/2, y+1/2, x'
  77  '-z+1/2, -x+1/2, y'
  78  'z+1/2, x+1/2, -y'
  79  '-z+1/2, y+1/2, x'
  80  'z+1/2, -y+1/2, -x'
  81  'y+1/2, z+1/2, x'
  82  '-y+1/2, -z+1/2, -x'
  83  'x+1/2, z+1/2, -y'
  84  '-x+1/2, -z+1/2, y'
  85  '-y+1/2, z+1/2, -x'
  86  'y+1/2, -z+1/2, x'
  87  '-x+1/2, z+1/2, y'
  88  'x+1/2, -z+1/2, -y'
  89  '-y+1/2, -z+1/2, x'
  90  'y+1/2, z+1/2, -x'
  91  '-x+1/2, -z+1/2, -y'
  92  'x+1/2, z+1/2, y'
  93  'y+1/2, -z+1/2, -x'
  94  '-y+1/2, z+1/2, x'
  95  'x+1/2, -z+1/2, y'
  96  '-x+1/2, z+1/2, -y'
  97  'x+1/2, y, z+1/2'
  98  '-x+1/2, -y, -z+1/2'
  99  '-y+1/2, x, z+1/2'
  100  'y+1/2, -x, -z+1/2'
  101  '-x+1/2, -y, z+1/2'
  102  'x+1/2, y, -z+1/2'
  103  'y+1/2, -x, z+1/2'
  104  '-y+1/2, x, -z+1/2'
  105  'x+1/2, -y, -z+1/2'
  106  '-x+1/2, y, z+1/2'
  107  '-y+1/2, -x, -z+1/2'
  108  'y+1/2, x, z+1/2'
  109  '-x+1/2, y, -z+1/2'
  110  'x+1/2, -y, z+1/2'
  111  'y+1/2, x, -z+1/2'
  112  '-y+1/2, -x, z+1/2'
  113  'z+1/2, x, y+1/2'
  114  '-z+1/2, -x, -y+1/2'
  115  'z+1/2, -y, x+1/2'
  116  '-z+1/2, y, -x+1/2'
  117  'z+1/2, -x, -y+1/2'
  118  '-z+1/2, x, y+1/2'
  119  'z+1/2, y, -x+1/2'
  120  '-z+1/2, -y, x+1/2'
  121  '-z+1/2, x, -y+1/2'
  122  'z+1/2, -x, y+1/2'
  123  '-z+1/2, -y, -x+1/2'
  124  'z+1/2, y, x+1/2'
  125  '-z+1/2, -x, y+1/2'
  126  'z+1/2, x, -y+1/2'
  127  '-z+1/2, y, x+1/2'
  128  'z+1/2, -y, -x+1/2'
  129  'y+1/2, z, x+1/2'
  130  '-y+1/2, -z, -x+1/2'
  131  'x+1/2, z, -y+1/2'
  132  '-x+1/2, -z, y+1/2'
  133  '-y+1/2, z, -x+1/2'
  134  'y+1/2, -z, x+1/2'
  135  '-x+1/2, z, y+1/2'
  136  'x+1/2, -z, -y+1/2'
  137  '-y+1/2, -z, x+1/2'
  138  'y+1/2, z, -x+1/2'
  139  '-x+1/2, -z, -y+1/2'
  140  'x+1/2, z, y+1/2'
  141  'y+1/2, -z, -x+1/2'
  142  '-y+1/2, z, x+1/2'
  143  'x+1/2, -z, y+1/2'
  144  '-x+1/2, z, -y+1/2'
  145  'x, y+1/2, z+1/2'
  146  '-x, -y+1/2, -z+1/2'
  147  '-y, x+1/2, z+1/2'
  148  'y, -x+1/2, -z+1/2'
  149  '-x, -y+1/2, z+1/2'
  150  'x, y+1/2, -z+1/2'
  151  'y, -x+1/2, z+1/2'
  152  '-y, x+1/2, -z+1/2'
  153  'x, -y+1/2, -z+1/2'
  154  '-x, y+1/2, z+1/2'
  155  '-y, -x+1/2, -z+1/2'
  156  'y, x+1/2, z+1/2'
  157  '-x, y+1/2, -z+1/2'
  158  'x, -y+1/2, z+1/2'
  159  'y, x+1/2, -z+1/2'
  160  '-y, -x+1/2, z+1/2'
  161  'z, x+1/2, y+1/2'
  162  '-z, -x+1/2, -y+1/2'
  163  'z, -y+1/2, x+1/2'
  164  '-z, y+1/2, -x+1/2'
  165  'z, -x+1/2, -y+1/2'
  166  '-z, x+1/2, y+1/2'
  167  'z, y+1/2, -x+1/2'
  168  '-z, -y+1/2, x+1/2'
  169  '-z, x+1/2, -y+1/2'
  170  'z, -x+1/2, y+1/2'
  171  '-z, -y+1/2, -x+1/2'
  172  'z, y+1/2, x+1/2'
  173  '-z, -x+1/2, y+1/2'
  174  'z, x+1/2, -y+1/2'
  175  '-z, y+1/2, x+1/2'
  176  'z, -y+1/2, -x+1/2'
  177  'y, z+1/2, x+1/2'
  178  '-y, -z+1/2, -x+1/2'
  179  'x, z+1/2, -y+1/2'
  180  '-x, -z+1/2, y+1/2'
  181  '-y, z+1/2, -x+1/2'
  182  'y, -z+1/2, x+1/2'
  183  '-x, z+1/2, y+1/2'
  184  'x, -z+1/2, -y+1/2'
  185  '-y, -z+1/2, x+1/2'
  186  'y, z+1/2, -x+1/2'
  187  '-x, -z+1/2, -y+1/2'
  188  'x, z+1/2, y+1/2'
  189  'y, -z+1/2, -x+1/2'
  190  '-y, z+1/2, x+1/2'
  191  'x, -z+1/2, y+1/2'
  192  '-x, z+1/2, -y+1/2'
loop_
 _atom_site_type_symbol
 _atom_site_label
 _atom_site_symmetry_multiplicity
 _atom_site_fract_x
 _atom_site_fract_y
 _atom_site_fract_z
 _atom_site_occupancy
  Au  Au0  4  0.00000000  0.00000000  0.50000000  1
# generated using pymatgen
data_ID_10
_symmetry_space_group_name_H-M   Fm-3m
_cell_length_a   4.05623477
_cell_length_b   4.05623477
_cell_length_c   4.05623477
_cell_angle_alpha   90.00000000
_cell_angle_beta   90.00000000
_cell_angle_gamma   90.00000000
_symmetry_Int_Tables_number   225
_chemical_formula_structural   Au
_cell_volume   66.73739515
_cell_formula_units_Z   4
loop_
 _symmetry_equiv_pos_site_id
 _symmetry_equiv_pos_as_xyz
  1  'x, y, z'
  2  '-x, -y, -z'
  3  '-y, x, z'
  4  'y, -x, -z'
  5  '-x, -y, z'
  6  'x, y, -z'
  7  'y, -x, z'
  8  '-y, x, -z'
  9  'x, -y, -z'
  10  '-x, y, z'
  11  '-y, -x, -z'
  12  'y, x, z'
  13  '-x, y, -z'
  14  'x, -y, z'
  15  'y, x, -z'
  16  '-y, -x, z'
  17  'z, x, y'
  18  '-z, -x, -y'
  19  'z, -y, x'
  20  '-z, y, -x'
  21  'z, -x, -y'
  22  '-z, x, y'
  23  'z, y, -x'
  24  '-z, -y, x'
  25  '-z, x, -y'
  26  'z, -x, y'
  27  '-z, -y, -x'
  28  'z, y, x'
  29  '-z, -x, y'
  30  'z, x, -y'
  31  '-z, y, x'
  32  'z, -y, -x'
  33  'y, z, x'
  34  '-y, -z, -x'
  35  'x, z, -y'
  36  '-x, -z, y'
  37  '-y, z, -x'
  38  'y, -z, x'
  39  '-x, z, y'
  40  'x, -z, -y'
  41  '-y, -z, x'
  42  'y, z, -x'
  43  '-x, -z, -y'
  44  'x, z, y'
  45  'y, -z, -x'
  46  '-y, z, x'
  47  'x, -z, y'
  48  '-x, z, -y'
  49  'x+1/2, y+1/2, z'
  50  '-x+1/2, -y+1/2, -z'
  51  '-y+1/2, x+1/2, z'
  52  'y+1/2, -x+1/2, -z'
  53  '-x+1/2, -y+1/2, z'
  54  'x+1/2, y+1/2, -z'
  55  'y+1/2, -x+1/2, z'
  56  '-y+1/2, x+1/2, -z'
  57  'x+1/2, -y+1/2, -z'
  58  '-x+1/2, y+1/2, z'
  59  '-y+1/2, -x+1/2, -z'
  60  'y+1/2, x+1/2, z'
  61  '-x+1/2, y+1/2, -z'
  62  'x+1/2, -y+1/2, z'
  63  'y+1/2, x+1/2, -z'
  64  '-y+1/2, -x+1/2, z'
  65  'z+1/2, x+1/2, y'
  66  '-z+1/2, -x+1/2, -y'
  67  'z+1/2, -y+1/2, x'
  68  '-z+1/2, y+1/2, -x'
  69  'z+1/2, -x+1/2, -y'
  70  '-z+1/2, x+1/2, y'
  71  'z+1/2, y+1/2, -x'
  72  '-z+1/2, -y+1/2, x'
  73  '-z+1/2, x+1/2, -y'
  74  'z+1/2, -x+1/2, y'
  75  '-z+1/2, -y+1/2, -x'
  76  'z+1/2, y+1/2, x'
  77  '-z+1/2, -x+1/2, y'
  78  'z+1/2, x+1/2, -y'
  79  '-z+1/2, y+1/2, x'
  80  'z+1/2, -y+1/2, -x'
  81  'y+1/2, z+1/2, x'
  82  '-y+1/2, -z+1/2, -x'
  83  'x+1/2, z+1/2, -y'
  84  '-x+1/2, -z+1/2, y'
  85  '-y+1/2, z+1/2, -x'
  86  'y+1/2, -z+1/2, x'
  87  '-x+1/2, z+1/2, y'
  88  'x+1/2, -z+1/2, -y'
  89  '-y+1/2, -z+1/2, x'
  90  'y+1/2, z+1/2, -x'
  91  '-x+1/2, -z+1/2, -y'
  92  'x+1/2, z+1/2, y'
  93  'y+1/2, -z+1/2, -x'
  94  '-y+1/2, z+1/2, x'
  95  'x+1/2, -z+1/2, y'
  96  '-x+1/2, z+1/2, -y'
  97  'x+1/2, y, z+1/2'
  98  '-x+1/2, -y, -z+1/2'
  99  '-y+1/2, x, z+1/2'
  100  'y+1/2, -x, -z+1/2'
  101  '-x+1/2, -y, z+1/2'
  102  'x+1/2, y, -z+1/2'
  103  'y+1/2, -x, z+1/2'
  104  '-y+1/2, x, -z+1/2'
  105  'x+1/2, -y, -z+1/2'
  106  '-x+1/2, y, z+1/2'
  107  '-y+1/2, -x, -z+1/2'
  108  'y+1/2, x, z+1/2'
  109  '-x+1/2, y, -z+1/2'
  110  'x+1/2, -y, z+1/2'
  111  'y+1/2, x, -z+1/2'
  112  '-y+1/2, -x, z+1/2'
  113  'z+1/2, x, y+1/2'
  114  '-z+1/2, -x, -y+1/2'
  115  'z+1/2, -y, x+1/2'
  116  '-z+1/2, y, -x+1/2'
  117  'z+1/2, -x, -y+1/2'
  118  '-z+1/2, x, y+1/2'
  119  'z+1/2, y, -x+1/2'
  120  '-z+1/2, -y, x+1/2'
  121  '-z+1/2, x, -y+1/2'
  122  'z+1/2, -x, y+1/2'
  123  '-z+1/2, -y, -x+1/2'
  124  'z+1/2, y, x+1/2'
  125  '-z+1/2, -x, y+1/2'
  126  'z+1/2, x, -y+1/2'
  127  '-z+1/2, y, x+1/2'
  128  'z+1/2, -y, -x+1/2'
  129  'y+1/2, z, x+1/2'
  130  '-y+1/2, -z, -x+1/2'
  131  'x+1/2, z, -y+1/2'
  132  '-x+1/2, -z, y+1/2'
  133  '-y+1/2, z, -x+1/2'
  134  'y+1/2, -z, x+1/2'
  135  '-x+1/2, z, y+1/2'
  136  'x+1/2, -z, -y+1/2'
  137  '-y+1/2, -z, x+1/2'
  138  'y+1/2, z, -x+1/2'
  139  '-x+1/2, -z, -y+1/2'
  140  'x+1/2, z, y+1/2'
  141  'y+1/2, -z, -x+1/2'
  142  '-y+1/2, z, x+1/2'
  143  'x+1/2, -z, y+1/2'
  144  '-x+1/2, z, -y+1/2'
  145  'x, y+1/2, z+1/2'
  146  '-x, -y+1/2, -z+1/2'
  147  '-y, x+1/2, z+1/2'
  148  'y, -x+1/2, -z+1/2'
  149  '-x, -y+1/2, z+1/2'
  150  'x, y+1/2, -z+1/2'
  151  'y, -x+1/2, z+1/2'
  152  '-y, x+1/2, -z+1/2'
  153  'x, -y+1/2, -z+1/2'
  154  '-x, y+1/2, z+1/2'
  155  '-y, -x+1/2, -z+1/2'
  156  'y, x+1/2, z+1/2'
  157  '-x, y+1/2, -z+1/2'
  158  'x, -y+1/2, z+1/2'
  159  'y, x+1/2, -z+1/2'
  160  '-y, -x+1/2, z+1/2'
  161  'z, x+1/2, y+1/2'
  162  '-z, -x+1/2, -y+1/2'
  163  'z, -y+1/2, x+1/2'
  164  '-z, y+1/2, -x+1/2'
  165  'z, -x+1/2, -y+1/2'
  166  '-z, x+1/2, y+1/2'
  167  'z, y+1/2, -x+1/2'
  168  '-z, -y+1/2, x+1/2'
  169  '-z, x+1/2, -y+1/2'
  170  'z, -x+1/2, y+1/2'
  171  '-z, -y+1/2, -x+1/2'
  172  'z, y+1/2, x+1/2'
  173  '-z, -x+1/2, y+1/2'
  174  'z, x+1/2, -y+1/2'
  175  '-z, y+1/2, x+1/2'
  176  'z, -y+1/2, -x+1/2'
  177  'y, z+1/2, x+1/2'
  178  '-y, -z+1/2, -x+1/2'
  179  'x, z+1/2, -y+1/2'
  180  '-x, -z+1/2, y+1/2'
  181  '-y, z+1/2, -x+1/2'
  182  'y, -z+1/2, x+1/2'
  183  '-x, z+1/2, y+1/2'
  184  'x, -z+1/2, -y+1/2'
  185  '-y, -z+1/2, x+1/2'
  186  'y, z+1/2, -x+1/2'
  187  '-x, -z+1/2, -y+1/2'
  188  'x, z+1/2, y+1/2'
  189  'y, -z+1/2, -x+1/2'
  190  '-y, z+1/2, x+1/2'
  191  'x, -z+1/2, y+1/2'
  192  '-x, z+1/2, -y+1/2'
loop_
 _atom_site_type_symbol
 _atom_site_label
 _atom_site_symmetry_multiplicity
 _atom_site_fract_x
 _atom_site_fract_y
 _atom_site_fract_z
 _atom_site_occupancy
  Au  Au0  4  0.00000000  0.00000000  0.50000000  1
# generated using pymatgen
data_ID_11
_symmetry_space_group_name_H-M   Cccm
_cell_length_a   2.75129795
_cell_length_b   9.34869160
_cell_length_c   5.43141058
_cell_angle_alpha   90.00000000
_cell_angle_beta   90.00000000
_cell_angle_gamma   90.00000000
_symmetry_Int_Tables_number   66
_chemical_formula_structural   Au
_cell_volume   139.70150740
_cell_formula_units_Z   8
loop_
 _symmetry_equiv_pos_site_id
 _symmetry_equiv_pos_as_xyz
  1  'x, y, z'
  2  '-x, -y, -z'
  3  '-x, -y, z'
  4  'x, y, -z'
  5  'x, -y, -z+1/2'
  6  '-x, y, z+1/2'
  7  '-x, y, -z+1/2'
  8  'x, -y, z+1/2'
  9  'x+1/2, y+1/2, z'
  10  '-x+1/2, -y+1/2, -z'
  11  '-x+1/2, -y+1/2, z'
  12  'x+1/2, y+1/2, -z'
  13  'x+1/2, -y+1/2, -z+1/2'
  14  '-x+1/2, y+1/2, z+1/2'
  15  '-x+1/2, y+1/2, -z+1/2'
  16  'x+1/2, -y+1/2, z+1/2'
loop_
 _atom_site_type_symbol
 _atom_site_label
 _atom_site_symmetry_multiplicity
 _atom_site_fract_x
 _atom_site_fract_y
 _atom_site_fract_z
 _atom_site_occupancy
  Au  Au0  4  0.00000000  0.00000000  0.25000000  1
  Au  Au1  4  0.25000000  0.25000000  0.50000000  1
# generated using pymatgen
data_ID_12
_symmetry_space_group_name_H-M   P6/mmm
_cell_length_a   2.79245421
_cell_length_b   2.79245421
_cell_length_c   2.72963603
_cell_angle_alpha   90.00000000
_cell_angle_beta   90.00000000
_cell_angle_gamma   120.00000000
_symmetry_Int_Tables_number   191
_chemical_formula_structural   Au
_cell_volume   18.43348692
_cell_formula_units_Z   1
loop_
 _symmetry_equiv_pos_site_id
 _symmetry_equiv_pos_as_xyz
  1  'x, y, z'
  2  '-x, -y, -z'
  3  'x-y, x, z'
  4  '-x+y, -x, -z'
  5  '-y, x-y, z'
  6  'y, -x+y, -z'
  7  '-x, -y, z'
  8  'x, y, -z'
  9  '-x+y, -x, z'
  10  'x-y, x, -z'
  11  'y, -x+y, z'
  12  '-y, x-y, -z'
  13  '-y, -x, -z'
  14  'y, x, z'
  15  '-x, -x+y, -z'
  16  'x, x-y, z'
  17  '-x+y, y, -z'
  18  'x-y, -y, z'
  19  'y, x, -z'
  20  '-y, -x, z'
  21  'x, x-y, -z'
  22  '-x, -x+y, z'
  23  'x-y, -y, -z'
  24  '-x+y, y, z'
loop_
 _atom_site_type_symbol
 _atom_site_label
 _atom_site_symmetry_multiplicity
 _atom_site_fract_x
 _atom_site_fract_y
 _atom_site_fract_z
 _atom_site_occupancy
  Au  Au0  1  0.00000000  0.00000000  0.50000000  1
# generated using pymatgen
data_ID_13
_symmetry_space_group_name_H-M   I4_1/amd
_cell_length_a   5.73581161
_cell_length_b   5.73581161
_cell_length_c   8.11379058
_cell_angle_alpha   90.00000000
_cell_angle_beta   90.00000000
_cell_angle_gamma   90.00000000
_symmetry_Int_Tables_number   141
_chemical_formula_structural   Au
_cell_volume   266.93993615
_cell_formula_units_Z   16
loop_
 _symmetry_equiv_pos_site_id
 _symmetry_equiv_pos_as_xyz
  1  'x, y, z'
  2  '-y, x+1/2, z+1/4'
  3  '-x+1/2, -y+1/2, z+1/2'
  4  'y+1/2, -x, z+3/4'
  5  'x, -y+1/2, -z+1/4'
  6  '-y, -x, -z'
  7  '-x+1/2, y, -z+3/4'
  8  'y+1/2, x+1/2, -z+1/2'
  9  '-x, -y+1/2, -z+1/4'
  10  'y, -x, -z'
  11  'x+1/2, y, -z+3/4'
  12  '-y+1/2, x+1/2, -z+1/2'
  13  '-x, y, z'
  14  'y, x+1/2, z+1/4'
  15  'x+1/2, -y+1/2, z+1/2'
  16  '-y+1/2, -x, z+3/4'
  17  'x+1/2, y+1/2, z+1/2'
  18  '-y+1/2, x, z+3/4'
  19  '-x, -y, z'
  20  'y, -x+1/2, z+1/4'
  21  'x+1/2, -y, -z+3/4'
  22  '-y+1/2, -x+1/2, -z+1/2'
  23  '-x, y+1/2, -z+1/4'
  24  'y, x, -z'
  25  '-x+1/2, -y, -z+3/4'
  26  'y+1/2, -x+1/2, -z+1/2'
  27  'x, y+1/2, -z+1/4'
  28  '-y, x, -z'
  29  '-x+1/2, y+1/2, z+1/2'
  30  'y+1/2, x, z+3/4'
  31  'x, -y, z'
  32  '-y, -x+1/2, z+1/4'
loop_
 _atom_site_type_symbol
 _atom_site_label
 _atom_site_symmetry_multiplicity
 _atom_site_fract_x
 _atom_site_fract_y
 _atom_site_fract_z
 _atom_site_occupancy
  Au  Au0  16  0.00000000  0.24950878  0.37437016  1
# generated using pymatgen
data_ID_14
_symmetry_space_group_name_H-M   Ama2
_cell_length_a   5.18204912
_cell_length_b   6.97137461
_cell_length_c   7.63754245
_cell_angle_alpha   90.00000000
_cell_angle_beta   90.00000000
_cell_angle_gamma   90.00000000
_symmetry_Int_Tables_number   40
_chemical_formula_structural   Au
_cell_volume   275.91390165
_cell_formula_units_Z   16
loop_
 _symmetry_equiv_pos_site_id
 _symmetry_equiv_pos_as_xyz
  1  'x, y, z'
  2  '-x, -y, z'
  3  '-x+1/2, y, z'
  4  'x+1/2, -y, z'
  5  'x, y+1/2, z+1/2'
  6  '-x, -y+1/2, z+1/2'
  7  '-x+1/2, y+1/2, z+1/2'
  8  'x+1/2, -y+1/2, z+1/2'
loop_
 _atom_site_type_symbol
 _atom_site_label
 _atom_site_symmetry_multiplicity
 _atom_site_fract_x
 _atom_site_fract_y
 _atom_site_fract_z
 _atom_site_occupancy
  Au  Au0  4  0.00000000  0.00000000  0.99302834  1
  Au  Au1  4  0.25000000  0.13926701  0.60591737  1
  Au  Au2  4  0.25000000  0.24931040  0.24379589  1
  Au  Au3  4  0.25000000  0.36098825  0.88137542  1
# generated using pymatgen
data_ID_15
_symmetry_space_group_name_H-M   Fm-3m
_cell_length_a   4.05623488
_cell_length_b   4.05623488
_cell_length_c   4.05623488
_cell_angle_alpha   90.00000000
_cell_angle_beta   90.00000000
_cell_angle_gamma   90.00000000
_symmetry_Int_Tables_number   225
_chemical_formula_structural   Au
_cell_volume   66.73740032
_cell_formula_units_Z   4
loop_
 _symmetry_equiv_pos_site_id
 _symmetry_equiv_pos_as_xyz
  1  'x, y, z'
  2  '-x, -y, -z'
  3  '-y, x, z'
  4  'y, -x, -z'
  5  '-x, -y, z'
  6  'x, y, -z'
  7  'y, -x, z'
  8  '-y, x, -z'
  9  'x, -y, -z'
  10  '-x, y, z'
  11  '-y, -x, -z'
  12  'y, x, z'
  13  '-x, y, -z'
  14  'x, -y, z'
  15  'y, x, -z'
  16  '-y, -x, z'
  17  'z, x, y'
  18  '-z, -x, -y'
  19  'z, -y, x'
  20  '-z, y, -x'
  21  'z, -x, -y'
  22  '-z, x, y'
  23  'z, y, -x'
  24  '-z, -y, x'
  25  '-z, x, -y'
  26  'z, -x, y'
  27  '-z, -y, -x'
  28  'z, y, x'
  29  '-z, -x, y'
  30  'z, x, -y'
  31  '-z, y, x'
  32  'z, -y, -x'
  33  'y, z, x'
  34  '-y, -z, -x'
  35  'x, z, -y'
  36  '-x, -z, y'
  37  '-y, z, -x'
  38  'y, -z, x'
  39  '-x, z, y'
  40  'x, -z, -y'
  41  '-y, -z, x'
  42  'y, z, -x'
  43  '-x, -z, -y'
  44  'x, z, y'
  45  'y, -z, -x'
  46  '-y, z, x'
  47  'x, -z, y'
  48  '-x, z, -y'
  49  'x+1/2, y+1/2, z'
  50  '-x+1/2, -y+1/2, -z'
  51  '-y+1/2, x+1/2, z'
  52  'y+1/2, -x+1/2, -z'
  53  '-x+1/2, -y+1/2, z'
  54  'x+1/2, y+1/2, -z'
  55  'y+1/2, -x+1/2, z'
  56  '-y+1/2, x+1/2, -z'
  57  'x+1/2, -y+1/2, -z'
  58  '-x+1/2, y+1/2, z'
  59  '-y+1/2, -x+1/2, -z'
  60  'y+1/2, x+1/2, z'
  61  '-x+1/2, y+1/2, -z'
  62  'x+1/2, -y+1/2, z'
  63  'y+1/2, x+1/2, -z'
  64  '-y+1/2, -x+1/2, z'
  65  'z+1/2, x+1/2, y'
  66  '-z+1/2, -x+1/2, -y'
  67  'z+1/2, -y+1/2, x'
  68  '-z+1/2, y+1/2, -x'
  69  'z+1/2, -x+1/2, -y'
  70  '-z+1/2, x+1/2, y'
  71  'z+1/2, y+1/2, -x'
  72  '-z+1/2, -y+1/2, x'
  73  '-z+1/2, x+1/2, -y'
  74  'z+1/2, -x+1/2, y'
  75  '-z+1/2, -y+1/2, -x'
  76  'z+1/2, y+1/2, x'
  77  '-z+1/2, -x+1/2, y'
  78  'z+1/2, x+1/2, -y'
  79  '-z+1/2, y+1/2, x'
  80  'z+1/2, -y+1/2, -x'
  81  'y+1/2, z+1/2, x'
  82  '-y+1/2, -z+1/2, -x'
  83  'x+1/2, z+1/2, -y'
  84  '-x+1/2, -z+1/2, y'
  85  '-y+1/2, z+1/2, -x'
  86  'y+1/2, -z+1/2, x'
  87  '-x+1/2, z+1/2, y'
  88  'x+1/2, -z+1/2, -y'
  89  '-y+1/2, -z+1/2, x'
  90  'y+1/2, z+1/2, -x'
  91  '-x+1/2, -z+1/2, -y'
  92  'x+1/2, z+1/2, y'
  93  'y+1/2, -z+1/2, -x'
  94  '-y+1/2, z+1/2, x'
  95  'x+1/2, -z+1/2, y'
  96  '-x+1/2, z+1/2, -y'
  97  'x+1/2, y, z+1/2'
  98  '-x+1/2, -y, -z+1/2'
  99  '-y+1/2, x, z+1/2'
  100  'y+1/2, -x, -z+1/2'
  101  '-x+1/2, -y, z+1/2'
  102  'x+1/2, y, -z+1/2'
  103  'y+1/2, -x, z+1/2'
  104  '-y+1/2, x, -z+1/2'
  105  'x+1/2, -y, -z+1/2'
  106  '-x+1/2, y, z+1/2'
  107  '-y+1/2, -x, -z+1/2'
  108  'y+1/2, x, z+1/2'
  109  '-x+1/2, y, -z+1/2'
  110  'x+1/2, -y, z+1/2'
  111  'y+1/2, x, -z+1/2'
  112  '-y+1/2, -x, z+1/2'
  113  'z+1/2, x, y+1/2'
  114  '-z+1/2, -x, -y+1/2'
  115  'z+1/2, -y, x+1/2'
  116  '-z+1/2, y, -x+1/2'
  117  'z+1/2, -x, -y+1/2'
  118  '-z+1/2, x, y+1/2'
  119  'z+1/2, y, -x+1/2'
  120  '-z+1/2, -y, x+1/2'
  121  '-z+1/2, x, -y+1/2'
  122  'z+1/2, -x, y+1/2'
  123  '-z+1/2, -y, -x+1/2'
  124  'z+1/2, y, x+1/2'
  125  '-z+1/2, -x, y+1/2'
  126  'z+1/2, x, -y+1/2'
  127  '-z+1/2, y, x+1/2'
  128  'z+1/2, -y, -x+1/2'
  129  'y+1/2, z, x+1/2'
  130  '-y+1/2, -z, -x+1/2'
  131  'x+1/2, z, -y+1/2'
  132  '-x+1/2, -z, y+1/2'
  133  '-y+1/2, z, -x+1/2'
  134  'y+1/2, -z, x+1/2'
  135  '-x+1/2, z, y+1/2'
  136  'x+1/2, -z, -y+1/2'
  137  '-y+1/2, -z, x+1/2'
  138  'y+1/2, z, -x+1/2'
  139  '-x+1/2, -z, -y+1/2'
  140  'x+1/2, z, y+1/2'
  141  'y+1/2, -z, -x+1/2'
  142  '-y+1/2, z, x+1/2'
  143  'x+1/2, -z, y+1/2'
  144  '-x+1/2, z, -y+1/2'
  145  'x, y+1/2, z+1/2'
  146  '-x, -y+1/2, -z+1/2'
  147  '-y, x+1/2, z+1/2'
  148  'y, -x+1/2, -z+1/2'
  149  '-x, -y+1/2, z+1/2'
  150  'x, y+1/2, -z+1/2'
  151  'y, -x+1/2, z+1/2'
  152  '-y, x+1/2, -z+1/2'
  153  'x, -y+1/2, -z+1/2'
  154  '-x, y+1/2, z+1/2'
  155  '-y, -x+1/2, -z+1/2'
  156  'y, x+1/2, z+1/2'
  157  '-x, y+1/2, -z+1/2'
  158  'x, -y+1/2, z+1/2'
  159  'y, x+1/2, -z+1/2'
  160  '-y, -x+1/2, z+1/2'
  161  'z, x+1/2, y+1/2'
  162  '-z, -x+1/2, -y+1/2'
  163  'z, -y+1/2, x+1/2'
  164  '-z, y+1/2, -x+1/2'
  165  'z, -x+1/2, -y+1/2'
  166  '-z, x+1/2, y+1/2'
  167  'z, y+1/2, -x+1/2'
  168  '-z, -y+1/2, x+1/2'
  169  '-z, x+1/2, -y+1/2'
  170  'z, -x+1/2, y+1/2'
  171  '-z, -y+1/2, -x+1/2'
  172  'z, y+1/2, x+1/2'
  173  '-z, -x+1/2, y+1/2'
  174  'z, x+1/2, -y+1/2'
  175  '-z, y+1/2, x+1/2'
  176  'z, -y+1/2, -x+1/2'
  177  'y, z+1/2, x+1/2'
  178  '-y, -z+1/2, -x+1/2'
  179  'x, z+1/2, -y+1/2'
  180  '-x, -z+1/2, y+1/2'
  181  '-y, z+1/2, -x+1/2'
  182  'y, -z+1/2, x+1/2'
  183  '-x, z+1/2, y+1/2'
  184  'x, -z+1/2, -y+1/2'
  185  '-y, -z+1/2, x+1/2'
  186  'y, z+1/2, -x+1/2'
  187  '-x, -z+1/2, -y+1/2'
  188  'x, z+1/2, y+1/2'
  189  'y, -z+1/2, -x+1/2'
  190  '-y, z+1/2, x+1/2'
  191  'x, -z+1/2, y+1/2'
  192  '-x, z+1/2, -y+1/2'
loop_
 _atom_site_type_symbol
 _atom_site_label
 _atom_site_symmetry_multiplicity
 _atom_site_fract_x
 _atom_site_fract_y
 _atom_site_fract_z
 _atom_site_occupancy
  Au  Au0  4  0.00000000  0.00000000  0.00000000  1
# generated using pymatgen
data_ID_16
_symmetry_space_group_name_H-M   I4/mmm
_cell_length_a   3.33713059
_cell_length_b   3.33713059
_cell_length_c   3.02311807
_cell_angle_alpha   90.00000000
_cell_angle_beta   90.00000000
_cell_angle_gamma   90.00000000
_symmetry_Int_Tables_number   139
_chemical_formula_structural   Au
_cell_volume   33.66677484
_cell_formula_units_Z   2
loop_
 _symmetry_equiv_pos_site_id
 _symmetry_equiv_pos_as_xyz
  1  'x, y, z'
  2  '-x, -y, -z'
  3  '-y, x, z'
  4  'y, -x, -z'
  5  '-x, -y, z'
  6  'x, y, -z'
  7  'y, -x, z'
  8  '-y, x, -z'
  9  'x, -y, -z'
  10  '-x, y, z'
  11  '-y, -x, -z'
  12  'y, x, z'
  13  '-x, y, -z'
  14  'x, -y, z'
  15  'y, x, -z'
  16  '-y, -x, z'
  17  'x+1/2, y+1/2, z+1/2'
  18  '-x+1/2, -y+1/2, -z+1/2'
  19  '-y+1/2, x+1/2, z+1/2'
  20  'y+1/2, -x+1/2, -z+1/2'
  21  '-x+1/2, -y+1/2, z+1/2'
  22  'x+1/2, y+1/2, -z+1/2'
  23  'y+1/2, -x+1/2, z+1/2'
  24  '-y+1/2, x+1/2, -z+1/2'
  25  'x+1/2, -y+1/2, -z+1/2'
  26  '-x+1/2, y+1/2, z+1/2'
  27  '-y+1/2, -x+1/2, -z+1/2'
  28  'y+1/2, x+1/2, z+1/2'
  29  '-x+1/2, y+1/2, -z+1/2'
  30  'x+1/2, -y+1/2, z+1/2'
  31  'y+1/2, x+1/2, -z+1/2'
  32  '-y+1/2, -x+1/2, z+1/2'
loop_
 _atom_site_type_symbol
 _atom_site_label
 _atom_site_symmetry_multiplicity
 _atom_site_fract_x
 _atom_site_fract_y
 _atom_site_fract_z
 _atom_site_occupancy
  Au  Au0  2  0.00000000  0.00000000  0.00000000  1
# generated using pymatgen
data_ID_17
_symmetry_space_group_name_H-M   Pm-3m
_cell_length_a   2.70759411
_cell_length_b   2.70759411
_cell_length_c   2.70759411
_cell_angle_alpha   90.00000000
_cell_angle_beta   90.00000000
_cell_angle_gamma   90.00000000
_symmetry_Int_Tables_number   221
_chemical_formula_structural   Au
_cell_volume   19.84955069
_cell_formula_units_Z   1
loop_
 _symmetry_equiv_pos_site_id
 _symmetry_equiv_pos_as_xyz
  1  'x, y, z'
  2  '-x, -y, -z'
  3  '-y, x, z'
  4  'y, -x, -z'
  5  '-x, -y, z'
  6  'x, y, -z'
  7  'y, -x, z'
  8  '-y, x, -z'
  9  'x, -y, -z'
  10  '-x, y, z'
  11  '-y, -x, -z'
  12  'y, x, z'
  13  '-x, y, -z'
  14  'x, -y, z'
  15  'y, x, -z'
  16  '-y, -x, z'
  17  'z, x, y'
  18  '-z, -x, -y'
  19  'z, -y, x'
  20  '-z, y, -x'
  21  'z, -x, -y'
  22  '-z, x, y'
  23  'z, y, -x'
  24  '-z, -y, x'
  25  '-z, x, -y'
  26  'z, -x, y'
  27  '-z, -y, -x'
  28  'z, y, x'
  29  '-z, -x, y'
  30  'z, x, -y'
  31  '-z, y, x'
  32  'z, -y, -x'
  33  'y, z, x'
  34  '-y, -z, -x'
  35  'x, z, -y'
  36  '-x, -z, y'
  37  '-y, z, -x'
  38  'y, -z, x'
  39  '-x, z, y'
  40  'x, -z, -y'
  41  '-y, -z, x'
  42  'y, z, -x'
  43  '-x, -z, -y'
  44  'x, z, y'
  45  'y, -z, -x'
  46  '-y, z, x'
  47  'x, -z, y'
  48  '-x, z, -y'
loop_
 _atom_site_type_symbol
 _atom_site_label
 _atom_site_symmetry_multiplicity
 _atom_site_fract_x
 _atom_site_fract_y
 _atom_site_fract_z
 _atom_site_occupancy
  Au  Au0  1  0.00000000  0.00000000  0.00000000  1
# generated using pymatgen
data_ID_18
_symmetry_space_group_name_H-M   P4_2/mmc
_cell_length_a   5.05070530
_cell_length_b   5.05070530
_cell_length_c   5.27761867
_cell_angle_alpha   90.00000000
_cell_angle_beta   90.00000000
_cell_angle_gamma   90.00000000
_symmetry_Int_Tables_number   131
_chemical_formula_structural   Au
_cell_volume   134.63006816
_cell_formula_units_Z   4
loop_
 _symmetry_equiv_pos_site_id
 _symmetry_equiv_pos_as_xyz
  1  'x, y, z'
  2  '-x, -y, -z'
  3  '-y, x, z+1/2'
  4  'y, -x, -z+1/2'
  5  '-x, -y, z'
  6  'x, y, -z'
  7  'y, -x, z+1/2'
  8  '-y, x, -z+1/2'
  9  'x, -y, -z'
  10  '-x, y, z'
  11  '-y, -x, -z+1/2'
  12  'y, x, z+1/2'
  13  '-x, y, -z'
  14  'x, -y, z'
  15  'y, x, -z+1/2'
  16  '-y, -x, z+1/2'
loop_
 _atom_site_type_symbol
 _atom_site_label
 _atom_site_symmetry_multiplicity
 _atom_site_fract_x
 _atom_site_fract_y
 _atom_site_fract_z
 _atom_site_occupancy
  Au  Au0  2  0.00000000  0.50000000  0.50000000  1
  Au  Au1  2  0.50000000  0.50000000  0.00000000  1
# generated using pymatgen
data_ID_19
_symmetry_space_group_name_H-M   P4/nmm
_cell_length_a   3.68880595
_cell_length_b   3.68880595
_cell_length_c   10.73948237
_cell_angle_alpha   90.00000000
_cell_angle_beta   90.00000000
_cell_angle_gamma   90.00000000
_symmetry_Int_Tables_number   129
_chemical_formula_structural   Au
_cell_volume   146.13524355
_cell_formula_units_Z   8
loop_
 _symmetry_equiv_pos_site_id
 _symmetry_equiv_pos_as_xyz
  1  'x, y, z'
  2  '-y+1/2, x+1/2, z'
  3  '-x, -y, z'
  4  'y+1/2, -x+1/2, z'
  5  'x+1/2, -y+1/2, -z'
  6  '-y, -x, -z'
  7  '-x+1/2, y+1/2, -z'
  8  'y, x, -z'
  9  '-x+1/2, -y+1/2, -z'
  10  'y, -x, -z'
  11  'x+1/2, y+1/2, -z'
  12  '-y, x, -z'
  13  '-x, y, z'
  14  'y+1/2, x+1/2, z'
  15  'x, -y, z'
  16  '-y+1/2, -x+1/2, z'
loop_
 _atom_site_type_symbol
 _atom_site_label
 _atom_site_symmetry_multiplicity
 _atom_site_fract_x
 _atom_site_fract_y
 _atom_site_fract_z
 _atom_site_occupancy
  Au  Au0  2  0.00000000  0.00000000  0.00000000  1
  Au  Au1  2  0.00000000  0.50000000  0.20079868  1
  Au  Au2  2  0.00000000  0.50000000  0.44777319  1
  Au  Au3  2  0.00000000  0.50000000  0.69995384  1
# generated using pymatgen
data_ID_20
_symmetry_space_group_name_H-M   Fddd
_cell_length_a   2.80607511
_cell_length_b   5.00653084
_cell_length_c   9.65365507
_cell_angle_alpha   90.00000000
_cell_angle_beta   90.00000000
_cell_angle_gamma   90.00000000
_symmetry_Int_Tables_number   70
_chemical_formula_structural   Au
_cell_volume   135.62131940
_cell_formula_units_Z   8
loop_
 _symmetry_equiv_pos_site_id
 _symmetry_equiv_pos_as_xyz
  1  'x, y, z'
  2  '-x, -y, z'
  3  'x, -y, -z'
  4  '-x, y, -z'
  5  '-x+1/4, -y+1/4, -z+1/4'
  6  'x+1/4, y+1/4, -z+1/4'
  7  '-x+1/4, y+1/4, z+1/4'
  8  'x+1/4, -y+1/4, z+1/4'
  9  'x+1/2, y, z+1/2'
  10  '-x+1/2, -y, z+1/2'
  11  'x+1/2, -y, -z+1/2'
  12  '-x+1/2, y, -z+1/2'
  13  '-x+3/4, -y+1/4, -z+3/4'
  14  'x+3/4, y+1/4, -z+3/4'
  15  '-x+3/4, y+1/4, z+3/4'
  16  'x+3/4, -y+1/4, z+3/4'
  17  'x+1/2, y+1/2, z'
  18  '-x+1/2, -y+1/2, z'
  19  'x+1/2, -y+1/2, -z'
  20  '-x+1/2, y+1/2, -z'
  21  '-x+3/4, -y+3/4, -z+1/4'
  22  'x+3/4, y+3/4, -z+1/4'
  23  '-x+3/4, y+3/4, z+1/4'
  24  'x+3/4, -y+3/4, z+1/4'
  25  'x, y+1/2, z+1/2'
  26  '-x, -y+1/2, z+1/2'
  27  'x, -y+1/2, -z+1/2'
  28  '-x, y+1/2, -z+1/2'
  29  '-x+1/4, -y+3/4, -z+3/4'
  30  'x+1/4, y+3/4, -z+3/4'
  31  '-x+1/4, y+3/4, z+3/4'
  32  'x+1/4, -y+3/4, z+3/4'
loop_
 _atom_site_type_symbol
 _atom_site_label
 _atom_site_symmetry_multiplicity
 _atom_site_fract_x
 _atom_site_fract_y
 _atom_site_fract_z
 _atom_site_occupancy
  Au  Au0  8  0.00000000  0.00000000  0.50000000  1
# generated using pymatgen
data_ID_21
_symmetry_space_group_name_H-M   C2/m
_cell_length_a   7.06152519
_cell_length_b   7.59367562
_cell_length_c   5.24163664
_cell_angle_alpha   90.00000000
_cell_angle_beta   96.51728647
_cell_angle_gamma   90.00000000
_symmetry_Int_Tables_number   12
_chemical_formula_structural   Au
_cell_volume   279.25554012
_cell_formula_units_Z   16
loop_
 _symmetry_equiv_pos_site_id
 _symmetry_equiv_pos_as_xyz
  1  'x, y, z'
  2  '-x, -y, -z'
  3  '-x, y, -z'
  4  'x, -y, z'
  5  'x+1/2, y+1/2, z'
  6  '-x+1/2, -y+1/2, -z'
  7  '-x+1/2, y+1/2, -z'
  8  'x+1/2, -y+1/2, z'
loop_
 _atom_site_type_symbol
 _atom_site_label
 _atom_site_symmetry_multiplicity
 _atom_site_fract_x
 _atom_site_fract_y
 _atom_site_fract_z
 _atom_site_occupancy
  Au  Au0  8  0.17895473  0.31697011  0.72006412  1
  Au  Au1  4  0.14417651  0.50000000  0.20608503  1
  Au  Au2  2  0.00000000  0.00000000  0.00000000  1
  Au  Au3  2  0.00000000  0.00000000  0.50000000  1
# generated using pymatgen
data_ID_22
_symmetry_space_group_name_H-M   I4/mcm
_cell_length_a   5.46488468
_cell_length_b   5.46488468
_cell_length_c   4.86045075
_cell_angle_alpha   90.00000000
_cell_angle_beta   90.00000000
_cell_angle_gamma   90.00000000
_symmetry_Int_Tables_number   140
_chemical_formula_structural   Au
_cell_volume   145.15718960
_cell_formula_units_Z   8
loop_
 _symmetry_equiv_pos_site_id
 _symmetry_equiv_pos_as_xyz
  1  'x, y, z'
  2  '-x, -y, -z'
  3  '-y, x, z'
  4  'y, -x, -z'
  5  '-x, -y, z'
  6  'x, y, -z'
  7  'y, -x, z'
  8  '-y, x, -z'
  9  'x, -y, -z+1/2'
  10  '-x, y, z+1/2'
  11  '-y, -x, -z+1/2'
  12  'y, x, z+1/2'
  13  '-x, y, -z+1/2'
  14  'x, -y, z+1/2'
  15  'y, x, -z+1/2'
  16  '-y, -x, z+1/2'
  17  'x+1/2, y+1/2, z+1/2'
  18  '-x+1/2, -y+1/2, -z+1/2'
  19  '-y+1/2, x+1/2, z+1/2'
  20  'y+1/2, -x+1/2, -z+1/2'
  21  '-x+1/2, -y+1/2, z+1/2'
  22  'x+1/2, y+1/2, -z+1/2'
  23  'y+1/2, -x+1/2, z+1/2'
  24  '-y+1/2, x+1/2, -z+1/2'
  25  'x+1/2, -y+1/2, -z'
  26  '-x+1/2, y+1/2, z'
  27  '-y+1/2, -x+1/2, -z'
  28  'y+1/2, x+1/2, z'
  29  '-x+1/2, y+1/2, -z'
  30  'x+1/2, -y+1/2, z'
  31  'y+1/2, x+1/2, -z'
  32  '-y+1/2, -x+1/2, z'
loop_
 _atom_site_type_symbol
 _atom_site_label
 _atom_site_symmetry_multiplicity
 _atom_site_fract_x
 _atom_site_fract_y
 _atom_site_fract_z
 _atom_site_occupancy
  Au  Au0  8  0.17241725  0.32758275  0.50000000  1
# generated using pymatgen
data_ID_23
_symmetry_space_group_name_H-M   Pm-3m
_cell_length_a   2.70710937
_cell_length_b   2.70710937
_cell_length_c   2.70710937
_cell_angle_alpha   90.00000000
_cell_angle_beta   90.00000000
_cell_angle_gamma   90.00000000
_symmetry_Int_Tables_number   221
_chemical_formula_structural   Au
_cell_volume   19.83889161
_cell_formula_units_Z   1
loop_
 _symmetry_equiv_pos_site_id
 _symmetry_equiv_pos_as_xyz
  1  'x, y, z'
  2  '-x, -y, -z'
  3  '-y, x, z'
  4  'y, -x, -z'
  5  '-x, -y, z'
  6  'x, y, -z'
  7  'y, -x, z'
  8  '-y, x, -z'
  9  'x, -y, -z'
  10  '-x, y, z'
  11  '-y, -x, -z'
  12  'y, x, z'
  13  '-x, y, -z'
  14  'x, -y, z'
  15  'y, x, -z'
  16  '-y, -x, z'
  17  'z, x, y'
  18  '-z, -x, -y'
  19  'z, -y, x'
  20  '-z, y, -x'
  21  'z, -x, -y'
  22  '-z, x, y'
  23  'z, y, -x'
  24  '-z, -y, x'
  25  '-z, x, -y'
  26  'z, -x, y'
  27  '-z, -y, -x'
  28  'z, y, x'
  29  '-z, -x, y'
  30  'z, x, -y'
  31  '-z, y, x'
  32  'z, -y, -x'
  33  'y, z, x'
  34  '-y, -z, -x'
  35  'x, z, -y'
  36  '-x, -z, y'
  37  '-y, z, -x'
  38  'y, -z, x'
  39  '-x, z, y'
  40  'x, -z, -y'
  41  '-y, -z, x'
  42  'y, z, -x'
  43  '-x, -z, -y'
  44  'x, z, y'
  45  'y, -z, -x'
  46  '-y, z, x'
  47  'x, -z, y'
  48  '-x, z, -y'
loop_
 _atom_site_type_symbol
 _atom_site_label
 _atom_site_symmetry_multiplicity
 _atom_site_fract_x
 _atom_site_fract_y
 _atom_site_fract_z
 _atom_site_occupancy
  Au  Au0  1  0.00000000  0.00000000  0.00000000  1
# generated using pymatgen
data_ID_24
_symmetry_space_group_name_H-M   I4_1/a
_cell_length_a   9.97623040
_cell_length_b   9.97623040
_cell_length_c   2.81480332
_cell_angle_alpha   90.00000000
_cell_angle_beta   90.00000000
_cell_angle_gamma   90.00000000
_symmetry_Int_Tables_number   88
_chemical_formula_structural   Au
_cell_volume   280.14378759
_cell_formula_units_Z   16
loop_
 _symmetry_equiv_pos_site_id
 _symmetry_equiv_pos_as_xyz
  1  'x, y, z'
  2  '-y, x+1/2, z+1/4'
  3  '-x+1/2, -y+1/2, z+1/2'
  4  'y+1/2, -x, z+3/4'
  5  '-x, -y+1/2, -z+1/4'
  6  'y, -x, -z'
  7  'x+1/2, y, -z+3/4'
  8  '-y+1/2, x+1/2, -z+1/2'
  9  'x+1/2, y+1/2, z+1/2'
  10  '-y+1/2, x, z+3/4'
  11  '-x, -y, z'
  12  'y, -x+1/2, z+1/4'
  13  '-x+1/2, -y, -z+3/4'
  14  'y+1/2, -x+1/2, -z+1/2'
  15  'x, y+1/2, -z+1/4'
  16  '-y, x, -z'
loop_
 _atom_site_type_symbol
 _atom_site_label
 _atom_site_symmetry_multiplicity
 _atom_site_fract_x
 _atom_site_fract_y
 _atom_site_fract_z
 _atom_site_occupancy
  Au  Au0  16  0.08948073  0.35085084  0.48829828  1
# generated using pymatgen
data_ID_25
_symmetry_space_group_name_H-M   Cmcm
_cell_length_a   2.78584479
_cell_length_b   8.99181645
_cell_length_c   2.82254410
_cell_angle_alpha   90.00000000
_cell_angle_beta   90.00000000
_cell_angle_gamma   90.00000000
_symmetry_Int_Tables_number   63
_chemical_formula_structural   Au
_cell_volume   70.70417927
_cell_formula_units_Z   4
loop_
 _symmetry_equiv_pos_site_id
 _symmetry_equiv_pos_as_xyz
  1  'x, y, z'
  2  '-x, -y, -z'
  3  '-x, -y, z+1/2'
  4  'x, y, -z+1/2'
  5  'x, -y, -z'
  6  '-x, y, z'
  7  '-x, y, -z+1/2'
  8  'x, -y, z+1/2'
  9  'x+1/2, y+1/2, z'
  10  '-x+1/2, -y+1/2, -z'
  11  '-x+1/2, -y+1/2, z+1/2'
  12  'x+1/2, y+1/2, -z+1/2'
  13  'x+1/2, -y+1/2, -z'
  14  '-x+1/2, y+1/2, z'
  15  '-x+1/2, y+1/2, -z+1/2'
  16  'x+1/2, -y+1/2, z+1/2'
loop_
 _atom_site_type_symbol
 _atom_site_label
 _atom_site_symmetry_multiplicity
 _atom_site_fract_x
 _atom_site_fract_y
 _atom_site_fract_z
 _atom_site_occupancy
  Au  Au0  4  0.00000000  0.13532803  0.25000000  1
# generated using pymatgen
data_ID_26
_symmetry_space_group_name_H-M   I4/mcm
_cell_length_a   5.37584653
_cell_length_b   5.37584653
_cell_length_c   10.38370558
_cell_angle_alpha   90.00000000
_cell_angle_beta   90.00000000
_cell_angle_gamma   90.00000000
_symmetry_Int_Tables_number   140
_chemical_formula_structural   Au
_cell_volume   300.08624538
_cell_formula_units_Z   16
loop_
 _symmetry_equiv_pos_site_id
 _symmetry_equiv_pos_as_xyz
  1  'x, y, z'
  2  '-x, -y, -z'
  3  '-y, x, z'
  4  'y, -x, -z'
  5  '-x, -y, z'
  6  'x, y, -z'
  7  'y, -x, z'
  8  '-y, x, -z'
  9  'x, -y, -z+1/2'
  10  '-x, y, z+1/2'
  11  '-y, -x, -z+1/2'
  12  'y, x, z+1/2'
  13  '-x, y, -z+1/2'
  14  'x, -y, z+1/2'
  15  'y, x, -z+1/2'
  16  '-y, -x, z+1/2'
  17  'x+1/2, y+1/2, z+1/2'
  18  '-x+1/2, -y+1/2, -z+1/2'
  19  '-y+1/2, x+1/2, z+1/2'
  20  'y+1/2, -x+1/2, -z+1/2'
  21  '-x+1/2, -y+1/2, z+1/2'
  22  'x+1/2, y+1/2, -z+1/2'
  23  'y+1/2, -x+1/2, z+1/2'
  24  '-y+1/2, x+1/2, -z+1/2'
  25  'x+1/2, -y+1/2, -z'
  26  '-x+1/2, y+1/2, z'
  27  '-y+1/2, -x+1/2, -z'
  28  'y+1/2, x+1/2, z'
  29  '-x+1/2, y+1/2, -z'
  30  'x+1/2, -y+1/2, z'
  31  'y+1/2, x+1/2, -z'
  32  '-y+1/2, -x+1/2, z'
loop_
 _atom_site_type_symbol
 _atom_site_label
 _atom_site_symmetry_multiplicity
 _atom_site_fract_x
 _atom_site_fract_y
 _atom_site_fract_z
 _atom_site_occupancy
  Au  Au0  16  0.17788753  0.32211247  0.63176442  1
# generated using pymatgen
data_ID_27
_symmetry_space_group_name_H-M   P6/mmm
_cell_length_a   4.62740834
_cell_length_b   4.62740834
_cell_length_c   2.66888189
_cell_angle_alpha   90.00000000
_cell_angle_beta   90.00000000
_cell_angle_gamma   120.00000000
_symmetry_Int_Tables_number   191
_chemical_formula_structural   Au
_cell_volume   49.49207203
_cell_formula_units_Z   2
loop_
 _symmetry_equiv_pos_site_id
 _symmetry_equiv_pos_as_xyz
  1  'x, y, z'
  2  '-x, -y, -z'
  3  'x-y, x, z'
  4  '-x+y, -x, -z'
  5  '-y, x-y, z'
  6  'y, -x+y, -z'
  7  '-x, -y, z'
  8  'x, y, -z'
  9  '-x+y, -x, z'
  10  'x-y, x, -z'
  11  'y, -x+y, z'
  12  '-y, x-y, -z'
  13  '-y, -x, -z'
  14  'y, x, z'
  15  '-x, -x+y, -z'
  16  'x, x-y, z'
  17  '-x+y, y, -z'
  18  'x-y, -y, z'
  19  'y, x, -z'
  20  '-y, -x, z'
  21  'x, x-y, -z'
  22  '-x, -x+y, z'
  23  'x-y, -y, -z'
  24  '-x+y, y, z'
loop_
 _atom_site_type_symbol
 _atom_site_label
 _atom_site_symmetry_multiplicity
 _atom_site_fract_x
 _atom_site_fract_y
 _atom_site_fract_z
 _atom_site_occupancy
  Au  Au0  2  0.33333333  0.66666667  0.00000000  1
# generated using pymatgen
data_ID_28
_symmetry_space_group_name_H-M   I4_132
_cell_length_a   7.25400113
_cell_length_b   7.25400113
_cell_length_c   7.25400113
_cell_angle_alpha   90.00000000
_cell_angle_beta   90.00000000
_cell_angle_gamma   90.00000000
_symmetry_Int_Tables_number   214
_chemical_formula_structural   Au
_cell_volume   381.70940071
_cell_formula_units_Z   8
loop_
 _symmetry_equiv_pos_site_id
 _symmetry_equiv_pos_as_xyz
  1  'x, y, z'
  2  '-y+1/4, x+3/4, z+1/4'
  3  '-x+1/2, -y, z+1/2'
  4  'y+1/4, -x+1/4, z+3/4'
  5  'x, -y, -z+1/2'
  6  '-y+1/4, -x+1/4, -z+1/4'
  7  '-x+1/2, y, -z'
  8  'y+1/4, x+3/4, -z+3/4'
  9  'z, x, y'
  10  'z+1/4, -y+1/4, x+3/4'
  11  'z+1/2, -x+1/2, -y'
  12  'z+3/4, y+1/4, -x+1/4'
  13  '-z+1/2, x, -y'
  14  '-z+1/4, -y+1/4, -x+1/4'
  15  '-z, -x+1/2, y'
  16  '-z+3/4, y+1/4, x+3/4'
  17  'y, z, x'
  18  'x+3/4, z+1/4, -y+1/4'
  19  '-y, z+1/2, -x+1/2'
  20  '-x+1/4, z+3/4, y+1/4'
  21  '-y, -z+1/2, x'
  22  '-x+1/4, -z+1/4, -y+1/4'
  23  'y, -z, -x+1/2'
  24  'x+3/4, -z+3/4, y+1/4'
  25  'x+1/2, y+1/2, z+1/2'
  26  '-y+3/4, x+1/4, z+3/4'
  27  '-x, -y+1/2, z'
  28  'y+3/4, -x+3/4, z+1/4'
  29  'x+1/2, -y+1/2, -z'
  30  '-y+3/4, -x+3/4, -z+3/4'
  31  '-x, y+1/2, -z+1/2'
  32  'y+3/4, x+1/4, -z+1/4'
  33  'z+1/2, x+1/2, y+1/2'
  34  'z+3/4, -y+3/4, x+1/4'
  35  'z, -x, -y+1/2'
  36  'z+1/4, y+3/4, -x+3/4'
  37  '-z, x+1/2, -y+1/2'
  38  '-z+3/4, -y+3/4, -x+3/4'
  39  '-z+1/2, -x, y+1/2'
  40  '-z+1/4, y+3/4, x+1/4'
  41  'y+1/2, z+1/2, x+1/2'
  42  'x+1/4, z+3/4, -y+3/4'
  43  '-y+1/2, z, -x'
  44  '-x+3/4, z+1/4, y+3/4'
  45  '-y+1/2, -z, x+1/2'
  46  '-x+3/4, -z+3/4, -y+3/4'
  47  'y+1/2, -z+1/2, -x'
  48  'x+1/4, -z+1/4, y+3/4'
loop_
 _atom_site_type_symbol
 _atom_site_label
 _atom_site_symmetry_multiplicity
 _atom_site_fract_x
 _atom_site_fract_y
 _atom_site_fract_z
 _atom_site_occupancy
  Au  Au0  8  0.12500000  0.12500000  0.12500000  1
# generated using pymatgen
data_ID_29
_symmetry_space_group_name_H-M   P6/mmm
_cell_length_a   4.59090833
_cell_length_b   4.59090833
_cell_length_c   14.61476012
_cell_angle_alpha   90.00000000
_cell_angle_beta   90.00000000
_cell_angle_gamma   120.00000000
_symmetry_Int_Tables_number   191
_chemical_formula_structural   Au
_cell_volume   266.75929781
_cell_formula_units_Z   8
loop_
 _symmetry_equiv_pos_site_id
 _symmetry_equiv_pos_as_xyz
  1  'x, y, z'
  2  '-x, -y, -z'
  3  'x-y, x, z'
  4  '-x+y, -x, -z'
  5  '-y, x-y, z'
  6  'y, -x+y, -z'
  7  '-x, -y, z'
  8  'x, y, -z'
  9  '-x+y, -x, z'
  10  'x-y, x, -z'
  11  'y, -x+y, z'
  12  '-y, x-y, -z'
  13  '-y, -x, -z'
  14  'y, x, z'
  15  '-x, -x+y, -z'
  16  'x, x-y, z'
  17  '-x+y, y, -z'
  18  'x-y, -y, z'
  19  'y, x, -z'
  20  '-y, -x, z'
  21  'x, x-y, -z'
  22  '-x, -x+y, z'
  23  'x-y, -y, -z'
  24  '-x+y, y, z'
loop_
 _atom_site_type_symbol
 _atom_site_label
 _atom_site_symmetry_multiplicity
 _atom_site_fract_x
 _atom_site_fract_y
 _atom_site_fract_z
 _atom_site_occupancy
  Au  Au0  4  0.33333333  0.66666667  0.68447554  1
  Au  Au1  2  0.00000000  0.00000000  0.40357122  1
  Au  Au2  2  0.33333333  0.66666667  0.50000000  1
# generated using pymatgen
data_ID_30
_symmetry_space_group_name_H-M   P6_3/mmc
_cell_length_a   2.86864451
_cell_length_b   2.86864451
_cell_length_c   4.68140233
_cell_angle_alpha   90.00000000
_cell_angle_beta   90.00000000
_cell_angle_gamma   120.00000000
_symmetry_Int_Tables_number   194
_chemical_formula_structural   Au
_cell_volume   33.36261355
_cell_formula_units_Z   2
loop_
 _symmetry_equiv_pos_site_id
 _symmetry_equiv_pos_as_xyz
  1  'x, y, z'
  2  '-x, -y, -z'
  3  'x-y, x, z+1/2'
  4  '-x+y, -x, -z+1/2'
  5  '-y, x-y, z'
  6  'y, -x+y, -z'
  7  '-x, -y, z+1/2'
  8  'x, y, -z+1/2'
  9  '-x+y, -x, z'
  10  'x-y, x, -z'
  11  'y, -x+y, z+1/2'
  12  '-y, x-y, -z+1/2'
  13  '-y, -x, -z+1/2'
  14  'y, x, z+1/2'
  15  '-x, -x+y, -z'
  16  'x, x-y, z'
  17  '-x+y, y, -z+1/2'
  18  'x-y, -y, z+1/2'
  19  'y, x, -z'
  20  '-y, -x, z'
  21  'x, x-y, -z+1/2'
  22  '-x, -x+y, z+1/2'
  23  'x-y, -y, -z'
  24  '-x+y, y, z'
loop_
 _atom_site_type_symbol
 _atom_site_label
 _atom_site_symmetry_multiplicity
 _atom_site_fract_x
 _atom_site_fract_y
 _atom_site_fract_z
 _atom_site_occupancy
  Au  Au0  2  0.33333333  0.66666667  0.75000000  1
# generated using pymatgen
data_ID_31
_symmetry_space_group_name_H-M   P6_3/mmc
_cell_length_a   2.86651609
_cell_length_b   2.86651609
_cell_length_c   4.68736958
_cell_angle_alpha   90.00000000
_cell_angle_beta   90.00000000
_cell_angle_gamma   120.00000000
_symmetry_Int_Tables_number   194
_chemical_formula_structural   Au
_cell_volume   33.35558764
_cell_formula_units_Z   2
loop_
 _symmetry_equiv_pos_site_id
 _symmetry_equiv_pos_as_xyz
  1  'x, y, z'
  2  '-x, -y, -z'
  3  'x-y, x, z+1/2'
  4  '-x+y, -x, -z+1/2'
  5  '-y, x-y, z'
  6  'y, -x+y, -z'
  7  '-x, -y, z+1/2'
  8  'x, y, -z+1/2'
  9  '-x+y, -x, z'
  10  'x-y, x, -z'
  11  'y, -x+y, z+1/2'
  12  '-y, x-y, -z+1/2'
  13  '-y, -x, -z+1/2'
  14  'y, x, z+1/2'
  15  '-x, -x+y, -z'
  16  'x, x-y, z'
  17  '-x+y, y, -z+1/2'
  18  'x-y, -y, z+1/2'
  19  'y, x, -z'
  20  '-y, -x, z'
  21  'x, x-y, -z+1/2'
  22  '-x, -x+y, z+1/2'
  23  'x-y, -y, -z'
  24  '-x+y, y, z'
loop_
 _atom_site_type_symbol
 _atom_site_label
 _atom_site_symmetry_multiplicity
 _atom_site_fract_x
 _atom_site_fract_y
 _atom_site_fract_z
 _atom_site_occupancy
  Au  Au0  2  0.33333333  0.66666667  0.25000000  1
# generated using pymatgen
data_ID_32
_symmetry_space_group_name_H-M   I4/mcm
_cell_length_a   5.37361159
_cell_length_b   5.37361159
_cell_length_c   10.39388050
_cell_angle_alpha   90.00000000
_cell_angle_beta   90.00000000
_cell_angle_gamma   90.00000000
_symmetry_Int_Tables_number   140
_chemical_formula_structural   Au
_cell_volume   300.13059050
_cell_formula_units_Z   16
loop_
 _symmetry_equiv_pos_site_id
 _symmetry_equiv_pos_as_xyz
  1  'x, y, z'
  2  '-x, -y, -z'
  3  '-y, x, z'
  4  'y, -x, -z'
  5  '-x, -y, z'
  6  'x, y, -z'
  7  'y, -x, z'
  8  '-y, x, -z'
  9  'x, -y, -z+1/2'
  10  '-x, y, z+1/2'
  11  '-y, -x, -z+1/2'
  12  'y, x, z+1/2'
  13  '-x, y, -z+1/2'
  14  'x, -y, z+1/2'
  15  'y, x, -z+1/2'
  16  '-y, -x, z+1/2'
  17  'x+1/2, y+1/2, z+1/2'
  18  '-x+1/2, -y+1/2, -z+1/2'
  19  '-y+1/2, x+1/2, z+1/2'
  20  'y+1/2, -x+1/2, -z+1/2'
  21  '-x+1/2, -y+1/2, z+1/2'
  22  'x+1/2, y+1/2, -z+1/2'
  23  'y+1/2, -x+1/2, z+1/2'
  24  '-y+1/2, x+1/2, -z+1/2'
  25  'x+1/2, -y+1/2, -z'
  26  '-x+1/2, y+1/2, z'
  27  '-y+1/2, -x+1/2, -z'
  28  'y+1/2, x+1/2, z'
  29  '-x+1/2, y+1/2, -z'
  30  'x+1/2, -y+1/2, z'
  31  'y+1/2, x+1/2, -z'
  32  '-y+1/2, -x+1/2, z'
loop_
 _atom_site_type_symbol
 _atom_site_label
 _atom_site_symmetry_multiplicity
 _atom_site_fract_x
 _atom_site_fract_y
 _atom_site_fract_z
 _atom_site_occupancy
  Au  Au0  16  0.17798189  0.67798189  0.13180039  1
# generated using pymatgen
data_ID_33
_symmetry_space_group_name_H-M   Fm-3m
_cell_length_a   4.05635655
_cell_length_b   4.05635655
_cell_length_c   4.05635655
_cell_angle_alpha   90.00000000
_cell_angle_beta   90.00000000
_cell_angle_gamma   90.00000000
_symmetry_Int_Tables_number   225
_chemical_formula_structural   Au
_cell_volume   66.74340635
_cell_formula_units_Z   4
loop_
 _symmetry_equiv_pos_site_id
 _symmetry_equiv_pos_as_xyz
  1  'x, y, z'
  2  '-x, -y, -z'
  3  '-y, x, z'
  4  'y, -x, -z'
  5  '-x, -y, z'
  6  'x, y, -z'
  7  'y, -x, z'
  8  '-y, x, -z'
  9  'x, -y, -z'
  10  '-x, y, z'
  11  '-y, -x, -z'
  12  'y, x, z'
  13  '-x, y, -z'
  14  'x, -y, z'
  15  'y, x, -z'
  16  '-y, -x, z'
  17  'z, x, y'
  18  '-z, -x, -y'
  19  'z, -y, x'
  20  '-z, y, -x'
  21  'z, -x, -y'
  22  '-z, x, y'
  23  'z, y, -x'
  24  '-z, -y, x'
  25  '-z, x, -y'
  26  'z, -x, y'
  27  '-z, -y, -x'
  28  'z, y, x'
  29  '-z, -x, y'
  30  'z, x, -y'
  31  '-z, y, x'
  32  'z, -y, -x'
  33  'y, z, x'
  34  '-y, -z, -x'
  35  'x, z, -y'
  36  '-x, -z, y'
  37  '-y, z, -x'
  38  'y, -z, x'
  39  '-x, z, y'
  40  'x, -z, -y'
  41  '-y, -z, x'
  42  'y, z, -x'
  43  '-x, -z, -y'
  44  'x, z, y'
  45  'y, -z, -x'
  46  '-y, z, x'
  47  'x, -z, y'
  48  '-x, z, -y'
  49  'x+1/2, y+1/2, z'
  50  '-x+1/2, -y+1/2, -z'
  51  '-y+1/2, x+1/2, z'
  52  'y+1/2, -x+1/2, -z'
  53  '-x+1/2, -y+1/2, z'
  54  'x+1/2, y+1/2, -z'
  55  'y+1/2, -x+1/2, z'
  56  '-y+1/2, x+1/2, -z'
  57  'x+1/2, -y+1/2, -z'
  58  '-x+1/2, y+1/2, z'
  59  '-y+1/2, -x+1/2, -z'
  60  'y+1/2, x+1/2, z'
  61  '-x+1/2, y+1/2, -z'
  62  'x+1/2, -y+1/2, z'
  63  'y+1/2, x+1/2, -z'
  64  '-y+1/2, -x+1/2, z'
  65  'z+1/2, x+1/2, y'
  66  '-z+1/2, -x+1/2, -y'
  67  'z+1/2, -y+1/2, x'
  68  '-z+1/2, y+1/2, -x'
  69  'z+1/2, -x+1/2, -y'
  70  '-z+1/2, x+1/2, y'
  71  'z+1/2, y+1/2, -x'
  72  '-z+1/2, -y+1/2, x'
  73  '-z+1/2, x+1/2, -y'
  74  'z+1/2, -x+1/2, y'
  75  '-z+1/2, -y+1/2, -x'
  76  'z+1/2, y+1/2, x'
  77  '-z+1/2, -x+1/2, y'
  78  'z+1/2, x+1/2, -y'
  79  '-z+1/2, y+1/2, x'
  80  'z+1/2, -y+1/2, -x'
  81  'y+1/2, z+1/2, x'
  82  '-y+1/2, -z+1/2, -x'
  83  'x+1/2, z+1/2, -y'
  84  '-x+1/2, -z+1/2, y'
  85  '-y+1/2, z+1/2, -x'
  86  'y+1/2, -z+1/2, x'
  87  '-x+1/2, z+1/2, y'
  88  'x+1/2, -z+1/2, -y'
  89  '-y+1/2, -z+1/2, x'
  90  'y+1/2, z+1/2, -x'
  91  '-x+1/2, -z+1/2, -y'
  92  'x+1/2, z+1/2, y'
  93  'y+1/2, -z+1/2, -x'
  94  '-y+1/2, z+1/2, x'
  95  'x+1/2, -z+1/2, y'
  96  '-x+1/2, z+1/2, -y'
  97  'x+1/2, y, z+1/2'
  98  '-x+1/2, -y, -z+1/2'
  99  '-y+1/2, x, z+1/2'
  100  'y+1/2, -x, -z+1/2'
  101  '-x+1/2, -y, z+1/2'
  102  'x+1/2, y, -z+1/2'
  103  'y+1/2, -x, z+1/2'
  104  '-y+1/2, x, -z+1/2'
  105  'x+1/2, -y, -z+1/2'
  106  '-x+1/2, y, z+1/2'
  107  '-y+1/2, -x, -z+1/2'
  108  'y+1/2, x, z+1/2'
  109  '-x+1/2, y, -z+1/2'
  110  'x+1/2, -y, z+1/2'
  111  'y+1/2, x, -z+1/2'
  112  '-y+1/2, -x, z+1/2'
  113  'z+1/2, x, y+1/2'
  114  '-z+1/2, -x, -y+1/2'
  115  'z+1/2, -y, x+1/2'
  116  '-z+1/2, y, -x+1/2'
  117  'z+1/2, -x, -y+1/2'
  118  '-z+1/2, x, y+1/2'
  119  'z+1/2, y, -x+1/2'
  120  '-z+1/2, -y, x+1/2'
  121  '-z+1/2, x, -y+1/2'
  122  'z+1/2, -x, y+1/2'
  123  '-z+1/2, -y, -x+1/2'
  124  'z+1/2, y, x+1/2'
  125  '-z+1/2, -x, y+1/2'
  126  'z+1/2, x, -y+1/2'
  127  '-z+1/2, y, x+1/2'
  128  'z+1/2, -y, -x+1/2'
  129  'y+1/2, z, x+1/2'
  130  '-y+1/2, -z, -x+1/2'
  131  'x+1/2, z, -y+1/2'
  132  '-x+1/2, -z, y+1/2'
  133  '-y+1/2, z, -x+1/2'
  134  'y+1/2, -z, x+1/2'
  135  '-x+1/2, z, y+1/2'
  136  'x+1/2, -z, -y+1/2'
  137  '-y+1/2, -z, x+1/2'
  138  'y+1/2, z, -x+1/2'
  139  '-x+1/2, -z, -y+1/2'
  140  'x+1/2, z, y+1/2'
  141  'y+1/2, -z, -x+1/2'
  142  '-y+1/2, z, x+1/2'
  143  'x+1/2, -z, y+1/2'
  144  '-x+1/2, z, -y+1/2'
  145  'x, y+1/2, z+1/2'
  146  '-x, -y+1/2, -z+1/2'
  147  '-y, x+1/2, z+1/2'
  148  'y, -x+1/2, -z+1/2'
  149  '-x, -y+1/2, z+1/2'
  150  'x, y+1/2, -z+1/2'
  151  'y, -x+1/2, z+1/2'
  152  '-y, x+1/2, -z+1/2'
  153  'x, -y+1/2, -z+1/2'
  154  '-x, y+1/2, z+1/2'
  155  '-y, -x+1/2, -z+1/2'
  156  'y, x+1/2, z+1/2'
  157  '-x, y+1/2, -z+1/2'
  158  'x, -y+1/2, z+1/2'
  159  'y, x+1/2, -z+1/2'
  160  '-y, -x+1/2, z+1/2'
  161  'z, x+1/2, y+1/2'
  162  '-z, -x+1/2, -y+1/2'
  163  'z, -y+1/2, x+1/2'
  164  '-z, y+1/2, -x+1/2'
  165  'z, -x+1/2, -y+1/2'
  166  '-z, x+1/2, y+1/2'
  167  'z, y+1/2, -x+1/2'
  168  '-z, -y+1/2, x+1/2'
  169  '-z, x+1/2, -y+1/2'
  170  'z, -x+1/2, y+1/2'
  171  '-z, -y+1/2, -x+1/2'
  172  'z, y+1/2, x+1/2'
  173  '-z, -x+1/2, y+1/2'
  174  'z, x+1/2, -y+1/2'
  175  '-z, y+1/2, x+1/2'
  176  'z, -y+1/2, -x+1/2'
  177  'y, z+1/2, x+1/2'
  178  '-y, -z+1/2, -x+1/2'
  179  'x, z+1/2, -y+1/2'
  180  '-x, -z+1/2, y+1/2'
  181  '-y, z+1/2, -x+1/2'
  182  'y, -z+1/2, x+1/2'
  183  '-x, z+1/2, y+1/2'
  184  'x, -z+1/2, -y+1/2'
  185  '-y, -z+1/2, x+1/2'
  186  'y, z+1/2, -x+1/2'
  187  '-x, -z+1/2, -y+1/2'
  188  'x, z+1/2, y+1/2'
  189  'y, -z+1/2, -x+1/2'
  190  '-y, z+1/2, x+1/2'
  191  'x, -z+1/2, y+1/2'
  192  '-x, z+1/2, -y+1/2'
loop_
 _atom_site_type_symbol
 _atom_site_label
 _atom_site_symmetry_multiplicity
 _atom_site_fract_x
 _atom_site_fract_y
 _atom_site_fract_z
 _atom_site_occupancy
  Au  Au0  4  0.00000000  0.00000000  0.50000000  1
# generated using pymatgen
data_ID_34
_symmetry_space_group_name_H-M   P4/mmm
_cell_length_a   5.25201699
_cell_length_b   5.25201699
_cell_length_c   2.71989535
_cell_angle_alpha   90.00000000
_cell_angle_beta   90.00000000
_cell_angle_gamma   90.00000000
_symmetry_Int_Tables_number   123
_chemical_formula_structural   Au
_cell_volume   75.02472983
_cell_formula_units_Z   4
loop_
 _symmetry_equiv_pos_site_id
 _symmetry_equiv_pos_as_xyz
  1  'x, y, z'
  2  '-x, -y, -z'
  3  '-y, x, z'
  4  'y, -x, -z'
  5  '-x, -y, z'
  6  'x, y, -z'
  7  'y, -x, z'
  8  '-y, x, -z'
  9  'x, -y, -z'
  10  '-x, y, z'
  11  '-y, -x, -z'
  12  'y, x, z'
  13  '-x, y, -z'
  14  'x, -y, z'
  15  'y, x, -z'
  16  '-y, -x, z'
loop_
 _atom_site_type_symbol
 _atom_site_label
 _atom_site_symmetry_multiplicity
 _atom_site_fract_x
 _atom_site_fract_y
 _atom_site_fract_z
 _atom_site_occupancy
  Au  Au0  2  0.00000000  0.50000000  0.00000000  1
  Au  Au1  1  0.00000000  0.00000000  0.50000000  1
  Au  Au2  1  0.50000000  0.50000000  0.00000000  1
# generated using pymatgen
data_ID_35
_symmetry_space_group_name_H-M   Im-3m
_cell_length_a   3.22519381
_cell_length_b   3.22519381
_cell_length_c   3.22519381
_cell_angle_alpha   90.00000000
_cell_angle_beta   90.00000000
_cell_angle_gamma   90.00000000
_symmetry_Int_Tables_number   229
_chemical_formula_structural   Au
_cell_volume   33.54806316
_cell_formula_units_Z   2
loop_
 _symmetry_equiv_pos_site_id
 _symmetry_equiv_pos_as_xyz
  1  'x, y, z'
  2  '-x, -y, -z'
  3  '-y, x, z'
  4  'y, -x, -z'
  5  '-x, -y, z'
  6  'x, y, -z'
  7  'y, -x, z'
  8  '-y, x, -z'
  9  'x, -y, -z'
  10  '-x, y, z'
  11  '-y, -x, -z'
  12  'y, x, z'
  13  '-x, y, -z'
  14  'x, -y, z'
  15  'y, x, -z'
  16  '-y, -x, z'
  17  'z, x, y'
  18  '-z, -x, -y'
  19  'z, -y, x'
  20  '-z, y, -x'
  21  'z, -x, -y'
  22  '-z, x, y'
  23  'z, y, -x'
  24  '-z, -y, x'
  25  '-z, x, -y'
  26  'z, -x, y'
  27  '-z, -y, -x'
  28  'z, y, x'
  29  '-z, -x, y'
  30  'z, x, -y'
  31  '-z, y, x'
  32  'z, -y, -x'
  33  'y, z, x'
  34  '-y, -z, -x'
  35  'x, z, -y'
  36  '-x, -z, y'
  37  '-y, z, -x'
  38  'y, -z, x'
  39  '-x, z, y'
  40  'x, -z, -y'
  41  '-y, -z, x'
  42  'y, z, -x'
  43  '-x, -z, -y'
  44  'x, z, y'
  45  'y, -z, -x'
  46  '-y, z, x'
  47  'x, -z, y'
  48  '-x, z, -y'
  49  'x+1/2, y+1/2, z+1/2'
  50  '-x+1/2, -y+1/2, -z+1/2'
  51  '-y+1/2, x+1/2, z+1/2'
  52  'y+1/2, -x+1/2, -z+1/2'
  53  '-x+1/2, -y+1/2, z+1/2'
  54  'x+1/2, y+1/2, -z+1/2'
  55  'y+1/2, -x+1/2, z+1/2'
  56  '-y+1/2, x+1/2, -z+1/2'
  57  'x+1/2, -y+1/2, -z+1/2'
  58  '-x+1/2, y+1/2, z+1/2'
  59  '-y+1/2, -x+1/2, -z+1/2'
  60  'y+1/2, x+1/2, z+1/2'
  61  '-x+1/2, y+1/2, -z+1/2'
  62  'x+1/2, -y+1/2, z+1/2'
  63  'y+1/2, x+1/2, -z+1/2'
  64  '-y+1/2, -x+1/2, z+1/2'
  65  'z+1/2, x+1/2, y+1/2'
  66  '-z+1/2, -x+1/2, -y+1/2'
  67  'z+1/2, -y+1/2, x+1/2'
  68  '-z+1/2, y+1/2, -x+1/2'
  69  'z+1/2, -x+1/2, -y+1/2'
  70  '-z+1/2, x+1/2, y+1/2'
  71  'z+1/2, y+1/2, -x+1/2'
  72  '-z+1/2, -y+1/2, x+1/2'
  73  '-z+1/2, x+1/2, -y+1/2'
  74  'z+1/2, -x+1/2, y+1/2'
  75  '-z+1/2, -y+1/2, -x+1/2'
  76  'z+1/2, y+1/2, x+1/2'
  77  '-z+1/2, -x+1/2, y+1/2'
  78  'z+1/2, x+1/2, -y+1/2'
  79  '-z+1/2, y+1/2, x+1/2'
  80  'z+1/2, -y+1/2, -x+1/2'
  81  'y+1/2, z+1/2, x+1/2'
  82  '-y+1/2, -z+1/2, -x+1/2'
  83  'x+1/2, z+1/2, -y+1/2'
  84  '-x+1/2, -z+1/2, y+1/2'
  85  '-y+1/2, z+1/2, -x+1/2'
  86  'y+1/2, -z+1/2, x+1/2'
  87  '-x+1/2, z+1/2, y+1/2'
  88  'x+1/2, -z+1/2, -y+1/2'
  89  '-y+1/2, -z+1/2, x+1/2'
  90  'y+1/2, z+1/2, -x+1/2'
  91  '-x+1/2, -z+1/2, -y+1/2'
  92  'x+1/2, z+1/2, y+1/2'
  93  'y+1/2, -z+1/2, -x+1/2'
  94  '-y+1/2, z+1/2, x+1/2'
  95  'x+1/2, -z+1/2, y+1/2'
  96  '-x+1/2, z+1/2, -y+1/2'
loop_
 _atom_site_type_symbol
 _atom_site_label
 _atom_site_symmetry_multiplicity
 _atom_site_fract_x
 _atom_site_fract_y
 _atom_site_fract_z
 _atom_site_occupancy
  Au  Au0  2  0.00000000  0.00000000  0.00000000  1
# generated using pymatgen
data_ID_36
_symmetry_space_group_name_H-M   P6_3/mmc
_cell_length_a   2.86838483
_cell_length_b   2.86838483
_cell_length_c   4.68171629
_cell_angle_alpha   90.00000000
_cell_angle_beta   90.00000000
_cell_angle_gamma   120.00000000
_symmetry_Int_Tables_number   194
_chemical_formula_structural   Au
_cell_volume   33.35881053
_cell_formula_units_Z   2
loop_
 _symmetry_equiv_pos_site_id
 _symmetry_equiv_pos_as_xyz
  1  'x, y, z'
  2  '-x, -y, -z'
  3  'x-y, x, z+1/2'
  4  '-x+y, -x, -z+1/2'
  5  '-y, x-y, z'
  6  'y, -x+y, -z'
  7  '-x, -y, z+1/2'
  8  'x, y, -z+1/2'
  9  '-x+y, -x, z'
  10  'x-y, x, -z'
  11  'y, -x+y, z+1/2'
  12  '-y, x-y, -z+1/2'
  13  '-y, -x, -z+1/2'
  14  'y, x, z+1/2'
  15  '-x, -x+y, -z'
  16  'x, x-y, z'
  17  '-x+y, y, -z+1/2'
  18  'x-y, -y, z+1/2'
  19  'y, x, -z'
  20  '-y, -x, z'
  21  'x, x-y, -z+1/2'
  22  '-x, -x+y, z+1/2'
  23  'x-y, -y, -z'
  24  '-x+y, y, z'
loop_
 _atom_site_type_symbol
 _atom_site_label
 _atom_site_symmetry_multiplicity
 _atom_site_fract_x
 _atom_site_fract_y
 _atom_site_fract_z
 _atom_site_occupancy
  Au  Au0  2  0.33333333  0.66666667  0.25000000  1
# generated using pymatgen
data_ID_37
_symmetry_space_group_name_H-M   P4/mmm
_cell_length_a   6.51322082
_cell_length_b   6.51322082
_cell_length_c   4.63983342
_cell_angle_alpha   90.00000000
_cell_angle_beta   90.00000000
_cell_angle_gamma   90.00000000
_symmetry_Int_Tables_number   123
_chemical_formula_structural   Au
_cell_volume   196.83122396
_cell_formula_units_Z   8
loop_
 _symmetry_equiv_pos_site_id
 _symmetry_equiv_pos_as_xyz
  1  'x, y, z'
  2  '-x, -y, -z'
  3  '-y, x, z'
  4  'y, -x, -z'
  5  '-x, -y, z'
  6  'x, y, -z'
  7  'y, -x, z'
  8  '-y, x, -z'
  9  'x, -y, -z'
  10  '-x, y, z'
  11  '-y, -x, -z'
  12  'y, x, z'
  13  '-x, y, -z'
  14  'x, -y, z'
  15  'y, x, -z'
  16  '-y, -x, z'
loop_
 _atom_site_type_symbol
 _atom_site_label
 _atom_site_symmetry_multiplicity
 _atom_site_fract_x
 _atom_site_fract_y
 _atom_site_fract_z
 _atom_site_occupancy
  Au  Au0  4  0.20559726  0.50000000  0.50000000  1
  Au  Au1  4  0.29042481  0.29042481  0.00000000  1
# generated using pymatgen
data_ID_38
_symmetry_space_group_name_H-M   Fm-3m
_cell_length_a   4.05657668
_cell_length_b   4.05657668
_cell_length_c   4.05657668
_cell_angle_alpha   90.00000000
_cell_angle_beta   90.00000000
_cell_angle_gamma   90.00000000
_symmetry_Int_Tables_number   225
_chemical_formula_structural   Au
_cell_volume   66.75427274
_cell_formula_units_Z   4
loop_
 _symmetry_equiv_pos_site_id
 _symmetry_equiv_pos_as_xyz
  1  'x, y, z'
  2  '-x, -y, -z'
  3  '-y, x, z'
  4  'y, -x, -z'
  5  '-x, -y, z'
  6  'x, y, -z'
  7  'y, -x, z'
  8  '-y, x, -z'
  9  'x, -y, -z'
  10  '-x, y, z'
  11  '-y, -x, -z'
  12  'y, x, z'
  13  '-x, y, -z'
  14  'x, -y, z'
  15  'y, x, -z'
  16  '-y, -x, z'
  17  'z, x, y'
  18  '-z, -x, -y'
  19  'z, -y, x'
  20  '-z, y, -x'
  21  'z, -x, -y'
  22  '-z, x, y'
  23  'z, y, -x'
  24  '-z, -y, x'
  25  '-z, x, -y'
  26  'z, -x, y'
  27  '-z, -y, -x'
  28  'z, y, x'
  29  '-z, -x, y'
  30  'z, x, -y'
  31  '-z, y, x'
  32  'z, -y, -x'
  33  'y, z, x'
  34  '-y, -z, -x'
  35  'x, z, -y'
  36  '-x, -z, y'
  37  '-y, z, -x'
  38  'y, -z, x'
  39  '-x, z, y'
  40  'x, -z, -y'
  41  '-y, -z, x'
  42  'y, z, -x'
  43  '-x, -z, -y'
  44  'x, z, y'
  45  'y, -z, -x'
  46  '-y, z, x'
  47  'x, -z, y'
  48  '-x, z, -y'
  49  'x+1/2, y+1/2, z'
  50  '-x+1/2, -y+1/2, -z'
  51  '-y+1/2, x+1/2, z'
  52  'y+1/2, -x+1/2, -z'
  53  '-x+1/2, -y+1/2, z'
  54  'x+1/2, y+1/2, -z'
  55  'y+1/2, -x+1/2, z'
  56  '-y+1/2, x+1/2, -z'
  57  'x+1/2, -y+1/2, -z'
  58  '-x+1/2, y+1/2, z'
  59  '-y+1/2, -x+1/2, -z'
  60  'y+1/2, x+1/2, z'
  61  '-x+1/2, y+1/2, -z'
  62  'x+1/2, -y+1/2, z'
  63  'y+1/2, x+1/2, -z'
  64  '-y+1/2, -x+1/2, z'
  65  'z+1/2, x+1/2, y'
  66  '-z+1/2, -x+1/2, -y'
  67  'z+1/2, -y+1/2, x'
  68  '-z+1/2, y+1/2, -x'
  69  'z+1/2, -x+1/2, -y'
  70  '-z+1/2, x+1/2, y'
  71  'z+1/2, y+1/2, -x'
  72  '-z+1/2, -y+1/2, x'
  73  '-z+1/2, x+1/2, -y'
  74  'z+1/2, -x+1/2, y'
  75  '-z+1/2, -y+1/2, -x'
  76  'z+1/2, y+1/2, x'
  77  '-z+1/2, -x+1/2, y'
  78  'z+1/2, x+1/2, -y'
  79  '-z+1/2, y+1/2, x'
  80  'z+1/2, -y+1/2, -x'
  81  'y+1/2, z+1/2, x'
  82  '-y+1/2, -z+1/2, -x'
  83  'x+1/2, z+1/2, -y'
  84  '-x+1/2, -z+1/2, y'
  85  '-y+1/2, z+1/2, -x'
  86  'y+1/2, -z+1/2, x'
  87  '-x+1/2, z+1/2, y'
  88  'x+1/2, -z+1/2, -y'
  89  '-y+1/2, -z+1/2, x'
  90  'y+1/2, z+1/2, -x'
  91  '-x+1/2, -z+1/2, -y'
  92  'x+1/2, z+1/2, y'
  93  'y+1/2, -z+1/2, -x'
  94  '-y+1/2, z+1/2, x'
  95  'x+1/2, -z+1/2, y'
  96  '-x+1/2, z+1/2, -y'
  97  'x+1/2, y, z+1/2'
  98  '-x+1/2, -y, -z+1/2'
  99  '-y+1/2, x, z+1/2'
  100  'y+1/2, -x, -z+1/2'
  101  '-x+1/2, -y, z+1/2'
  102  'x+1/2, y, -z+1/2'
  103  'y+1/2, -x, z+1/2'
  104  '-y+1/2, x, -z+1/2'
  105  'x+1/2, -y, -z+1/2'
  106  '-x+1/2, y, z+1/2'
  107  '-y+1/2, -x, -z+1/2'
  108  'y+1/2, x, z+1/2'
  109  '-x+1/2, y, -z+1/2'
  110  'x+1/2, -y, z+1/2'
  111  'y+1/2, x, -z+1/2'
  112  '-y+1/2, -x, z+1/2'
  113  'z+1/2, x, y+1/2'
  114  '-z+1/2, -x, -y+1/2'
  115  'z+1/2, -y, x+1/2'
  116  '-z+1/2, y, -x+1/2'
  117  'z+1/2, -x, -y+1/2'
  118  '-z+1/2, x, y+1/2'
  119  'z+1/2, y, -x+1/2'
  120  '-z+1/2, -y, x+1/2'
  121  '-z+1/2, x, -y+1/2'
  122  'z+1/2, -x, y+1/2'
  123  '-z+1/2, -y, -x+1/2'
  124  'z+1/2, y, x+1/2'
  125  '-z+1/2, -x, y+1/2'
  126  'z+1/2, x, -y+1/2'
  127  '-z+1/2, y, x+1/2'
  128  'z+1/2, -y, -x+1/2'
  129  'y+1/2, z, x+1/2'
  130  '-y+1/2, -z, -x+1/2'
  131  'x+1/2, z, -y+1/2'
  132  '-x+1/2, -z, y+1/2'
  133  '-y+1/2, z, -x+1/2'
  134  'y+1/2, -z, x+1/2'
  135  '-x+1/2, z, y+1/2'
  136  'x+1/2, -z, -y+1/2'
  137  '-y+1/2, -z, x+1/2'
  138  'y+1/2, z, -x+1/2'
  139  '-x+1/2, -z, -y+1/2'
  140  'x+1/2, z, y+1/2'
  141  'y+1/2, -z, -x+1/2'
  142  '-y+1/2, z, x+1/2'
  143  'x+1/2, -z, y+1/2'
  144  '-x+1/2, z, -y+1/2'
  145  'x, y+1/2, z+1/2'
  146  '-x, -y+1/2, -z+1/2'
  147  '-y, x+1/2, z+1/2'
  148  'y, -x+1/2, -z+1/2'
  149  '-x, -y+1/2, z+1/2'
  150  'x, y+1/2, -z+1/2'
  151  'y, -x+1/2, z+1/2'
  152  '-y, x+1/2, -z+1/2'
  153  'x, -y+1/2, -z+1/2'
  154  '-x, y+1/2, z+1/2'
  155  '-y, -x+1/2, -z+1/2'
  156  'y, x+1/2, z+1/2'
  157  '-x, y+1/2, -z+1/2'
  158  'x, -y+1/2, z+1/2'
  159  'y, x+1/2, -z+1/2'
  160  '-y, -x+1/2, z+1/2'
  161  'z, x+1/2, y+1/2'
  162  '-z, -x+1/2, -y+1/2'
  163  'z, -y+1/2, x+1/2'
  164  '-z, y+1/2, -x+1/2'
  165  'z, -x+1/2, -y+1/2'
  166  '-z, x+1/2, y+1/2'
  167  'z, y+1/2, -x+1/2'
  168  '-z, -y+1/2, x+1/2'
  169  '-z, x+1/2, -y+1/2'
  170  'z, -x+1/2, y+1/2'
  171  '-z, -y+1/2, -x+1/2'
  172  'z, y+1/2, x+1/2'
  173  '-z, -x+1/2, y+1/2'
  174  'z, x+1/2, -y+1/2'
  175  '-z, y+1/2, x+1/2'
  176  'z, -y+1/2, -x+1/2'
  177  'y, z+1/2, x+1/2'
  178  '-y, -z+1/2, -x+1/2'
  179  'x, z+1/2, -y+1/2'
  180  '-x, -z+1/2, y+1/2'
  181  '-y, z+1/2, -x+1/2'
  182  'y, -z+1/2, x+1/2'
  183  '-x, z+1/2, y+1/2'
  184  'x, -z+1/2, -y+1/2'
  185  '-y, -z+1/2, x+1/2'
  186  'y, z+1/2, -x+1/2'
  187  '-x, -z+1/2, -y+1/2'
  188  'x, z+1/2, y+1/2'
  189  'y, -z+1/2, -x+1/2'
  190  '-y, z+1/2, x+1/2'
  191  'x, -z+1/2, y+1/2'
  192  '-x, z+1/2, -y+1/2'
loop_
 _atom_site_type_symbol
 _atom_site_label
 _atom_site_symmetry_multiplicity
 _atom_site_fract_x
 _atom_site_fract_y
 _atom_site_fract_z
 _atom_site_occupancy
  Au  Au0  4  0.00000000  0.00000000  0.50000000  1
# generated using pymatgen
data_ID_39
_symmetry_space_group_name_H-M   P6_3/mcm
_cell_length_a   5.43146548
_cell_length_b   5.43146548
_cell_length_c   5.47656383
_cell_angle_alpha   90.00000000
_cell_angle_beta   90.00000000
_cell_angle_gamma   120.00000000
_symmetry_Int_Tables_number   193
_chemical_formula_structural   Au
_cell_volume   139.91775662
_cell_formula_units_Z   8
loop_
 _symmetry_equiv_pos_site_id
 _symmetry_equiv_pos_as_xyz
  1  'x, y, z'
  2  '-x, -y, -z'
  3  'x-y, x, z+1/2'
  4  '-x+y, -x, -z+1/2'
  5  '-y, x-y, z'
  6  'y, -x+y, -z'
  7  '-x, -y, z+1/2'
  8  'x, y, -z+1/2'
  9  '-x+y, -x, z'
  10  'x-y, x, -z'
  11  'y, -x+y, z+1/2'
  12  '-y, x-y, -z+1/2'
  13  '-y, -x, -z'
  14  'y, x, z'
  15  '-x, -x+y, -z+1/2'
  16  'x, x-y, z+1/2'
  17  '-x+y, y, -z'
  18  'x-y, -y, z'
  19  'y, x, -z+1/2'
  20  '-y, -x, z+1/2'
  21  'x, x-y, -z'
  22  '-x, -x+y, z'
  23  'x-y, -y, -z+1/2'
  24  '-x+y, y, z+1/2'
loop_
 _atom_site_type_symbol
 _atom_site_label
 _atom_site_symmetry_multiplicity
 _atom_site_fract_x
 _atom_site_fract_y
 _atom_site_fract_z
 _atom_site_occupancy
  Au  Au0  6  0.00000000  0.46517772  0.25000000  1
  Au  Au1  2  0.00000000  0.00000000  0.00000000  1
# generated using pymatgen
data_ID_40
_symmetry_space_group_name_H-M   P6_3/mmc
_cell_length_a   2.86698982
_cell_length_b   2.86698982
_cell_length_c   4.68669937
_cell_angle_alpha   90.00000000
_cell_angle_beta   90.00000000
_cell_angle_gamma   120.00000000
_symmetry_Int_Tables_number   194
_chemical_formula_structural   Au
_cell_volume   33.36184262
_cell_formula_units_Z   2
loop_
 _symmetry_equiv_pos_site_id
 _symmetry_equiv_pos_as_xyz
  1  'x, y, z'
  2  '-x, -y, -z'
  3  'x-y, x, z+1/2'
  4  '-x+y, -x, -z+1/2'
  5  '-y, x-y, z'
  6  'y, -x+y, -z'
  7  '-x, -y, z+1/2'
  8  'x, y, -z+1/2'
  9  '-x+y, -x, z'
  10  'x-y, x, -z'
  11  'y, -x+y, z+1/2'
  12  '-y, x-y, -z+1/2'
  13  '-y, -x, -z+1/2'
  14  'y, x, z+1/2'
  15  '-x, -x+y, -z'
  16  'x, x-y, z'
  17  '-x+y, y, -z+1/2'
  18  'x-y, -y, z+1/2'
  19  'y, x, -z'
  20  '-y, -x, z'
  21  'x, x-y, -z+1/2'
  22  '-x, -x+y, z+1/2'
  23  'x-y, -y, -z'
  24  '-x+y, y, z'
loop_
 _atom_site_type_symbol
 _atom_site_label
 _atom_site_symmetry_multiplicity
 _atom_site_fract_x
 _atom_site_fract_y
 _atom_site_fract_z
 _atom_site_occupancy
  Au  Au0  2  0.33333333  0.66666667  0.75000000  1
# generated using pymatgen
data_ID_41
_symmetry_space_group_name_H-M   P6_3/mcm
_cell_length_a   5.43064969
_cell_length_b   5.43064969
_cell_length_c   5.47691779
_cell_angle_alpha   90.00000000
_cell_angle_beta   90.00000000
_cell_angle_gamma   120.00000000
_symmetry_Int_Tables_number   193
_chemical_formula_structural   Au
_cell_volume   139.88476944
_cell_formula_units_Z   8
loop_
 _symmetry_equiv_pos_site_id
 _symmetry_equiv_pos_as_xyz
  1  'x, y, z'
  2  '-x, -y, -z'
  3  'x-y, x, z+1/2'
  4  '-x+y, -x, -z+1/2'
  5  '-y, x-y, z'
  6  'y, -x+y, -z'
  7  '-x, -y, z+1/2'
  8  'x, y, -z+1/2'
  9  '-x+y, -x, z'
  10  'x-y, x, -z'
  11  'y, -x+y, z+1/2'
  12  '-y, x-y, -z+1/2'
  13  '-y, -x, -z'
  14  'y, x, z'
  15  '-x, -x+y, -z+1/2'
  16  'x, x-y, z+1/2'
  17  '-x+y, y, -z'
  18  'x-y, -y, z'
  19  'y, x, -z+1/2'
  20  '-y, -x, z+1/2'
  21  'x, x-y, -z'
  22  '-x, -x+y, z'
  23  'x-y, -y, -z+1/2'
  24  '-x+y, y, z+1/2'
loop_
 _atom_site_type_symbol
 _atom_site_label
 _atom_site_symmetry_multiplicity
 _atom_site_fract_x
 _atom_site_fract_y
 _atom_site_fract_z
 _atom_site_occupancy
  Au  Au0  6  0.00000000  0.46428551  0.75000000  1
  Au  Au1  2  0.00000000  0.00000000  0.00000000  1
# generated using pymatgen
data_ID_42
_symmetry_space_group_name_H-M   Cmmm
_cell_length_a   7.49547225
_cell_length_b   9.05112592
_cell_length_c   5.54695840
_cell_angle_alpha   90.00000000
_cell_angle_beta   90.00000000
_cell_angle_gamma   90.00000000
_symmetry_Int_Tables_number   65
_chemical_formula_structural   Au
_cell_volume   376.31932040
_cell_formula_units_Z   16
loop_
 _symmetry_equiv_pos_site_id
 _symmetry_equiv_pos_as_xyz
  1  'x, y, z'
  2  '-x, -y, -z'
  3  '-x, -y, z'
  4  'x, y, -z'
  5  'x, -y, -z'
  6  '-x, y, z'
  7  '-x, y, -z'
  8  'x, -y, z'
  9  'x+1/2, y+1/2, z'
  10  '-x+1/2, -y+1/2, -z'
  11  '-x+1/2, -y+1/2, z'
  12  'x+1/2, y+1/2, -z'
  13  'x+1/2, -y+1/2, -z'
  14  '-x+1/2, y+1/2, z'
  15  '-x+1/2, y+1/2, -z'
  16  'x+1/2, -y+1/2, z'
loop_
 _atom_site_type_symbol
 _atom_site_label
 _atom_site_symmetry_multiplicity
 _atom_site_fract_x
 _atom_site_fract_y
 _atom_site_fract_z
 _atom_site_occupancy
  Au  Au0  8  0.18370870  0.50000000  0.25280731  1
  Au  Au1  4  0.00000000  0.29293395  0.00000000  1
  Au  Au2  2  0.00000000  0.00000000  0.00000000  1
  Au  Au3  2  0.00000000  0.00000000  0.50000000  1
# generated using pymatgen
data_ID_43
_symmetry_space_group_name_H-M   Pm-3m
_cell_length_a   2.70770732
_cell_length_b   2.70770732
_cell_length_c   2.70770732
_cell_angle_alpha   90.00000000
_cell_angle_beta   90.00000000
_cell_angle_gamma   90.00000000
_symmetry_Int_Tables_number   221
_chemical_formula_structural   Au
_cell_volume   19.85204074
_cell_formula_units_Z   1
loop_
 _symmetry_equiv_pos_site_id
 _symmetry_equiv_pos_as_xyz
  1  'x, y, z'
  2  '-x, -y, -z'
  3  '-y, x, z'
  4  'y, -x, -z'
  5  '-x, -y, z'
  6  'x, y, -z'
  7  'y, -x, z'
  8  '-y, x, -z'
  9  'x, -y, -z'
  10  '-x, y, z'
  11  '-y, -x, -z'
  12  'y, x, z'
  13  '-x, y, -z'
  14  'x, -y, z'
  15  'y, x, -z'
  16  '-y, -x, z'
  17  'z, x, y'
  18  '-z, -x, -y'
  19  'z, -y, x'
  20  '-z, y, -x'
  21  'z, -x, -y'
  22  '-z, x, y'
  23  'z, y, -x'
  24  '-z, -y, x'
  25  '-z, x, -y'
  26  'z, -x, y'
  27  '-z, -y, -x'
  28  'z, y, x'
  29  '-z, -x, y'
  30  'z, x, -y'
  31  '-z, y, x'
  32  'z, -y, -x'
  33  'y, z, x'
  34  '-y, -z, -x'
  35  'x, z, -y'
  36  '-x, -z, y'
  37  '-y, z, -x'
  38  'y, -z, x'
  39  '-x, z, y'
  40  'x, -z, -y'
  41  '-y, -z, x'
  42  'y, z, -x'
  43  '-x, -z, -y'
  44  'x, z, y'
  45  'y, -z, -x'
  46  '-y, z, x'
  47  'x, -z, y'
  48  '-x, z, -y'
loop_
 _atom_site_type_symbol
 _atom_site_label
 _atom_site_symmetry_multiplicity
 _atom_site_fract_x
 _atom_site_fract_y
 _atom_site_fract_z
 _atom_site_occupancy
  Au  Au0  1  0.00000000  0.00000000  0.00000000  1
# generated using pymatgen
data_ID_44
_symmetry_space_group_name_H-M   P-62m
_cell_length_a   4.87334307
_cell_length_b   4.87334307
_cell_length_c   7.30723611
_cell_angle_alpha   90.00000000
_cell_angle_beta   90.00000000
_cell_angle_gamma   120.00000000
_symmetry_Int_Tables_number   189
_chemical_formula_structural   Au
_cell_volume   150.29265044
_cell_formula_units_Z   8
loop_
 _symmetry_equiv_pos_site_id
 _symmetry_equiv_pos_as_xyz
  1  'x, y, z'
  2  '-x+y, -x, -z'
  3  '-y, x-y, z'
  4  'x, y, -z'
  5  '-x+y, -x, z'
  6  '-y, x-y, -z'
  7  'y, x, z'
  8  '-x, -x+y, -z'
  9  'x-y, -y, z'
  10  'y, x, -z'
  11  '-x, -x+y, z'
  12  'x-y, -y, -z'
loop_
 _atom_site_type_symbol
 _atom_site_label
 _atom_site_symmetry_multiplicity
 _atom_site_fract_x
 _atom_site_fract_y
 _atom_site_fract_z
 _atom_site_occupancy
  Au  Au0  6  0.00000000  0.33122403  0.18720058  1
  Au  Au1  2  0.33333333  0.66666667  0.50000000  1
# generated using pymatgen
data_ID_45
_symmetry_space_group_name_H-M   I4_1/acd
_cell_length_a   10.07659822
_cell_length_b   10.07659822
_cell_length_c   2.82216586
_cell_angle_alpha   90.00000000
_cell_angle_beta   90.00000000
_cell_angle_gamma   90.00000000
_symmetry_Int_Tables_number   142
_chemical_formula_structural   Au
_cell_volume   286.55660213
_cell_formula_units_Z   16
loop_
 _symmetry_equiv_pos_site_id
 _symmetry_equiv_pos_as_xyz
  1  'x, y, z'
  2  '-y, x+1/2, z+1/4'
  3  '-x+1/2, -y+1/2, z+1/2'
  4  'y+1/2, -x, z+3/4'
  5  'x+1/2, -y, -z+1/4'
  6  '-y+1/2, -x+1/2, -z'
  7  '-x, y+1/2, -z+3/4'
  8  'y, x, -z+1/2'
  9  '-x, -y+1/2, -z+1/4'
  10  'y, -x, -z'
  11  'x+1/2, y, -z+3/4'
  12  '-y+1/2, x+1/2, -z+1/2'
  13  '-x+1/2, y+1/2, z'
  14  'y+1/2, x, z+1/4'
  15  'x, -y, z+1/2'
  16  '-y, -x+1/2, z+3/4'
  17  'x+1/2, y+1/2, z+1/2'
  18  '-y+1/2, x, z+3/4'
  19  '-x, -y, z'
  20  'y, -x+1/2, z+1/4'
  21  'x, -y+1/2, -z+3/4'
  22  '-y, -x, -z+1/2'
  23  '-x+1/2, y, -z+1/4'
  24  'y+1/2, x+1/2, -z'
  25  '-x+1/2, -y, -z+3/4'
  26  'y+1/2, -x+1/2, -z+1/2'
  27  'x, y+1/2, -z+1/4'
  28  '-y, x, -z'
  29  '-x, y, z+1/2'
  30  'y, x+1/2, z+3/4'
  31  'x+1/2, -y+1/2, z'
  32  '-y+1/2, -x, z+1/4'
loop_
 _atom_site_type_symbol
 _atom_site_label
 _atom_site_symmetry_multiplicity
 _atom_site_fract_x
 _atom_site_fract_y
 _atom_site_fract_z
 _atom_site_occupancy
  Au  Au0  16  0.11954332  0.11954332  0.25000000  1
# generated using pymatgen
data_ID_46
_symmetry_space_group_name_H-M   Fm-3m
_cell_length_a   4.05580259
_cell_length_b   4.05580259
_cell_length_c   4.05580259
_cell_angle_alpha   90.00000000
_cell_angle_beta   90.00000000
_cell_angle_gamma   90.00000000
_symmetry_Int_Tables_number   225
_chemical_formula_structural   Au
_cell_volume   66.71606532
_cell_formula_units_Z   4
loop_
 _symmetry_equiv_pos_site_id
 _symmetry_equiv_pos_as_xyz
  1  'x, y, z'
  2  '-x, -y, -z'
  3  '-y, x, z'
  4  'y, -x, -z'
  5  '-x, -y, z'
  6  'x, y, -z'
  7  'y, -x, z'
  8  '-y, x, -z'
  9  'x, -y, -z'
  10  '-x, y, z'
  11  '-y, -x, -z'
  12  'y, x, z'
  13  '-x, y, -z'
  14  'x, -y, z'
  15  'y, x, -z'
  16  '-y, -x, z'
  17  'z, x, y'
  18  '-z, -x, -y'
  19  'z, -y, x'
  20  '-z, y, -x'
  21  'z, -x, -y'
  22  '-z, x, y'
  23  'z, y, -x'
  24  '-z, -y, x'
  25  '-z, x, -y'
  26  'z, -x, y'
  27  '-z, -y, -x'
  28  'z, y, x'
  29  '-z, -x, y'
  30  'z, x, -y'
  31  '-z, y, x'
  32  'z, -y, -x'
  33  'y, z, x'
  34  '-y, -z, -x'
  35  'x, z, -y'
  36  '-x, -z, y'
  37  '-y, z, -x'
  38  'y, -z, x'
  39  '-x, z, y'
  40  'x, -z, -y'
  41  '-y, -z, x'
  42  'y, z, -x'
  43  '-x, -z, -y'
  44  'x, z, y'
  45  'y, -z, -x'
  46  '-y, z, x'
  47  'x, -z, y'
  48  '-x, z, -y'
  49  'x+1/2, y+1/2, z'
  50  '-x+1/2, -y+1/2, -z'
  51  '-y+1/2, x+1/2, z'
  52  'y+1/2, -x+1/2, -z'
  53  '-x+1/2, -y+1/2, z'
  54  'x+1/2, y+1/2, -z'
  55  'y+1/2, -x+1/2, z'
  56  '-y+1/2, x+1/2, -z'
  57  'x+1/2, -y+1/2, -z'
  58  '-x+1/2, y+1/2, z'
  59  '-y+1/2, -x+1/2, -z'
  60  'y+1/2, x+1/2, z'
  61  '-x+1/2, y+1/2, -z'
  62  'x+1/2, -y+1/2, z'
  63  'y+1/2, x+1/2, -z'
  64  '-y+1/2, -x+1/2, z'
  65  'z+1/2, x+1/2, y'
  66  '-z+1/2, -x+1/2, -y'
  67  'z+1/2, -y+1/2, x'
  68  '-z+1/2, y+1/2, -x'
  69  'z+1/2, -x+1/2, -y'
  70  '-z+1/2, x+1/2, y'
  71  'z+1/2, y+1/2, -x'
  72  '-z+1/2, -y+1/2, x'
  73  '-z+1/2, x+1/2, -y'
  74  'z+1/2, -x+1/2, y'
  75  '-z+1/2, -y+1/2, -x'
  76  'z+1/2, y+1/2, x'
  77  '-z+1/2, -x+1/2, y'
  78  'z+1/2, x+1/2, -y'
  79  '-z+1/2, y+1/2, x'
  80  'z+1/2, -y+1/2, -x'
  81  'y+1/2, z+1/2, x'
  82  '-y+1/2, -z+1/2, -x'
  83  'x+1/2, z+1/2, -y'
  84  '-x+1/2, -z+1/2, y'
  85  '-y+1/2, z+1/2, -x'
  86  'y+1/2, -z+1/2, x'
  87  '-x+1/2, z+1/2, y'
  88  'x+1/2, -z+1/2, -y'
  89  '-y+1/2, -z+1/2, x'
  90  'y+1/2, z+1/2, -x'
  91  '-x+1/2, -z+1/2, -y'
  92  'x+1/2, z+1/2, y'
  93  'y+1/2, -z+1/2, -x'
  94  '-y+1/2, z+1/2, x'
  95  'x+1/2, -z+1/2, y'
  96  '-x+1/2, z+1/2, -y'
  97  'x+1/2, y, z+1/2'
  98  '-x+1/2, -y, -z+1/2'
  99  '-y+1/2, x, z+1/2'
  100  'y+1/2, -x, -z+1/2'
  101  '-x+1/2, -y, z+1/2'
  102  'x+1/2, y, -z+1/2'
  103  'y+1/2, -x, z+1/2'
  104  '-y+1/2, x, -z+1/2'
  105  'x+1/2, -y, -z+1/2'
  106  '-x+1/2, y, z+1/2'
  107  '-y+1/2, -x, -z+1/2'
  108  'y+1/2, x, z+1/2'
  109  '-x+1/2, y, -z+1/2'
  110  'x+1/2, -y, z+1/2'
  111  'y+1/2, x, -z+1/2'
  112  '-y+1/2, -x, z+1/2'
  113  'z+1/2, x, y+1/2'
  114  '-z+1/2, -x, -y+1/2'
  115  'z+1/2, -y, x+1/2'
  116  '-z+1/2, y, -x+1/2'
  117  'z+1/2, -x, -y+1/2'
  118  '-z+1/2, x, y+1/2'
  119  'z+1/2, y, -x+1/2'
  120  '-z+1/2, -y, x+1/2'
  121  '-z+1/2, x, -y+1/2'
  122  'z+1/2, -x, y+1/2'
  123  '-z+1/2, -y, -x+1/2'
  124  'z+1/2, y, x+1/2'
  125  '-z+1/2, -x, y+1/2'
  126  'z+1/2, x, -y+1/2'
  127  '-z+1/2, y, x+1/2'
  128  'z+1/2, -y, -x+1/2'
  129  'y+1/2, z, x+1/2'
  130  '-y+1/2, -z, -x+1/2'
  131  'x+1/2, z, -y+1/2'
  132  '-x+1/2, -z, y+1/2'
  133  '-y+1/2, z, -x+1/2'
  134  'y+1/2, -z, x+1/2'
  135  '-x+1/2, z, y+1/2'
  136  'x+1/2, -z, -y+1/2'
  137  '-y+1/2, -z, x+1/2'
  138  'y+1/2, z, -x+1/2'
  139  '-x+1/2, -z, -y+1/2'
  140  'x+1/2, z, y+1/2'
  141  'y+1/2, -z, -x+1/2'
  142  '-y+1/2, z, x+1/2'
  143  'x+1/2, -z, y+1/2'
  144  '-x+1/2, z, -y+1/2'
  145  'x, y+1/2, z+1/2'
  146  '-x, -y+1/2, -z+1/2'
  147  '-y, x+1/2, z+1/2'
  148  'y, -x+1/2, -z+1/2'
  149  '-x, -y+1/2, z+1/2'
  150  'x, y+1/2, -z+1/2'
  151  'y, -x+1/2, z+1/2'
  152  '-y, x+1/2, -z+1/2'
  153  'x, -y+1/2, -z+1/2'
  154  '-x, y+1/2, z+1/2'
  155  '-y, -x+1/2, -z+1/2'
  156  'y, x+1/2, z+1/2'
  157  '-x, y+1/2, -z+1/2'
  158  'x, -y+1/2, z+1/2'
  159  'y, x+1/2, -z+1/2'
  160  '-y, -x+1/2, z+1/2'
  161  'z, x+1/2, y+1/2'
  162  '-z, -x+1/2, -y+1/2'
  163  'z, -y+1/2, x+1/2'
  164  '-z, y+1/2, -x+1/2'
  165  'z, -x+1/2, -y+1/2'
  166  '-z, x+1/2, y+1/2'
  167  'z, y+1/2, -x+1/2'
  168  '-z, -y+1/2, x+1/2'
  169  '-z, x+1/2, -y+1/2'
  170  'z, -x+1/2, y+1/2'
  171  '-z, -y+1/2, -x+1/2'
  172  'z, y+1/2, x+1/2'
  173  '-z, -x+1/2, y+1/2'
  174  'z, x+1/2, -y+1/2'
  175  '-z, y+1/2, x+1/2'
  176  'z, -y+1/2, -x+1/2'
  177  'y, z+1/2, x+1/2'
  178  '-y, -z+1/2, -x+1/2'
  179  'x, z+1/2, -y+1/2'
  180  '-x, -z+1/2, y+1/2'
  181  '-y, z+1/2, -x+1/2'
  182  'y, -z+1/2, x+1/2'
  183  '-x, z+1/2, y+1/2'
  184  'x, -z+1/2, -y+1/2'
  185  '-y, -z+1/2, x+1/2'
  186  'y, z+1/2, -x+1/2'
  187  '-x, -z+1/2, -y+1/2'
  188  'x, z+1/2, y+1/2'
  189  'y, -z+1/2, -x+1/2'
  190  '-y, z+1/2, x+1/2'
  191  'x, -z+1/2, y+1/2'
  192  '-x, z+1/2, -y+1/2'
loop_
 _atom_site_type_symbol
 _atom_site_label
 _atom_site_symmetry_multiplicity
 _atom_site_fract_x
 _atom_site_fract_y
 _atom_site_fract_z
 _atom_site_occupancy
  Au  Au0  4  0.00000000  0.00000000  0.00000000  1
# generated using pymatgen
data_ID_47
_symmetry_space_group_name_H-M   Fm-3m
_cell_length_a   4.05615970
_cell_length_b   4.05615970
_cell_length_c   4.05615970
_cell_angle_alpha   90.00000000
_cell_angle_beta   90.00000000
_cell_angle_gamma   90.00000000
_symmetry_Int_Tables_number   225
_chemical_formula_structural   Au
_cell_volume   66.73368991
_cell_formula_units_Z   4
loop_
 _symmetry_equiv_pos_site_id
 _symmetry_equiv_pos_as_xyz
  1  'x, y, z'
  2  '-x, -y, -z'
  3  '-y, x, z'
  4  'y, -x, -z'
  5  '-x, -y, z'
  6  'x, y, -z'
  7  'y, -x, z'
  8  '-y, x, -z'
  9  'x, -y, -z'
  10  '-x, y, z'
  11  '-y, -x, -z'
  12  'y, x, z'
  13  '-x, y, -z'
  14  'x, -y, z'
  15  'y, x, -z'
  16  '-y, -x, z'
  17  'z, x, y'
  18  '-z, -x, -y'
  19  'z, -y, x'
  20  '-z, y, -x'
  21  'z, -x, -y'
  22  '-z, x, y'
  23  'z, y, -x'
  24  '-z, -y, x'
  25  '-z, x, -y'
  26  'z, -x, y'
  27  '-z, -y, -x'
  28  'z, y, x'
  29  '-z, -x, y'
  30  'z, x, -y'
  31  '-z, y, x'
  32  'z, -y, -x'
  33  'y, z, x'
  34  '-y, -z, -x'
  35  'x, z, -y'
  36  '-x, -z, y'
  37  '-y, z, -x'
  38  'y, -z, x'
  39  '-x, z, y'
  40  'x, -z, -y'
  41  '-y, -z, x'
  42  'y, z, -x'
  43  '-x, -z, -y'
  44  'x, z, y'
  45  'y, -z, -x'
  46  '-y, z, x'
  47  'x, -z, y'
  48  '-x, z, -y'
  49  'x+1/2, y+1/2, z'
  50  '-x+1/2, -y+1/2, -z'
  51  '-y+1/2, x+1/2, z'
  52  'y+1/2, -x+1/2, -z'
  53  '-x+1/2, -y+1/2, z'
  54  'x+1/2, y+1/2, -z'
  55  'y+1/2, -x+1/2, z'
  56  '-y+1/2, x+1/2, -z'
  57  'x+1/2, -y+1/2, -z'
  58  '-x+1/2, y+1/2, z'
  59  '-y+1/2, -x+1/2, -z'
  60  'y+1/2, x+1/2, z'
  61  '-x+1/2, y+1/2, -z'
  62  'x+1/2, -y+1/2, z'
  63  'y+1/2, x+1/2, -z'
  64  '-y+1/2, -x+1/2, z'
  65  'z+1/2, x+1/2, y'
  66  '-z+1/2, -x+1/2, -y'
  67  'z+1/2, -y+1/2, x'
  68  '-z+1/2, y+1/2, -x'
  69  'z+1/2, -x+1/2, -y'
  70  '-z+1/2, x+1/2, y'
  71  'z+1/2, y+1/2, -x'
  72  '-z+1/2, -y+1/2, x'
  73  '-z+1/2, x+1/2, -y'
  74  'z+1/2, -x+1/2, y'
  75  '-z+1/2, -y+1/2, -x'
  76  'z+1/2, y+1/2, x'
  77  '-z+1/2, -x+1/2, y'
  78  'z+1/2, x+1/2, -y'
  79  '-z+1/2, y+1/2, x'
  80  'z+1/2, -y+1/2, -x'
  81  'y+1/2, z+1/2, x'
  82  '-y+1/2, -z+1/2, -x'
  83  'x+1/2, z+1/2, -y'
  84  '-x+1/2, -z+1/2, y'
  85  '-y+1/2, z+1/2, -x'
  86  'y+1/2, -z+1/2, x'
  87  '-x+1/2, z+1/2, y'
  88  'x+1/2, -z+1/2, -y'
  89  '-y+1/2, -z+1/2, x'
  90  'y+1/2, z+1/2, -x'
  91  '-x+1/2, -z+1/2, -y'
  92  'x+1/2, z+1/2, y'
  93  'y+1/2, -z+1/2, -x'
  94  '-y+1/2, z+1/2, x'
  95  'x+1/2, -z+1/2, y'
  96  '-x+1/2, z+1/2, -y'
  97  'x+1/2, y, z+1/2'
  98  '-x+1/2, -y, -z+1/2'
  99  '-y+1/2, x, z+1/2'
  100  'y+1/2, -x, -z+1/2'
  101  '-x+1/2, -y, z+1/2'
  102  'x+1/2, y, -z+1/2'
  103  'y+1/2, -x, z+1/2'
  104  '-y+1/2, x, -z+1/2'
  105  'x+1/2, -y, -z+1/2'
  106  '-x+1/2, y, z+1/2'
  107  '-y+1/2, -x, -z+1/2'
  108  'y+1/2, x, z+1/2'
  109  '-x+1/2, y, -z+1/2'
  110  'x+1/2, -y, z+1/2'
  111  'y+1/2, x, -z+1/2'
  112  '-y+1/2, -x, z+1/2'
  113  'z+1/2, x, y+1/2'
  114  '-z+1/2, -x, -y+1/2'
  115  'z+1/2, -y, x+1/2'
  116  '-z+1/2, y, -x+1/2'
  117  'z+1/2, -x, -y+1/2'
  118  '-z+1/2, x, y+1/2'
  119  'z+1/2, y, -x+1/2'
  120  '-z+1/2, -y, x+1/2'
  121  '-z+1/2, x, -y+1/2'
  122  'z+1/2, -x, y+1/2'
  123  '-z+1/2, -y, -x+1/2'
  124  'z+1/2, y, x+1/2'
  125  '-z+1/2, -x, y+1/2'
  126  'z+1/2, x, -y+1/2'
  127  '-z+1/2, y, x+1/2'
  128  'z+1/2, -y, -x+1/2'
  129  'y+1/2, z, x+1/2'
  130  '-y+1/2, -z, -x+1/2'
  131  'x+1/2, z, -y+1/2'
  132  '-x+1/2, -z, y+1/2'
  133  '-y+1/2, z, -x+1/2'
  134  'y+1/2, -z, x+1/2'
  135  '-x+1/2, z, y+1/2'
  136  'x+1/2, -z, -y+1/2'
  137  '-y+1/2, -z, x+1/2'
  138  'y+1/2, z, -x+1/2'
  139  '-x+1/2, -z, -y+1/2'
  140  'x+1/2, z, y+1/2'
  141  'y+1/2, -z, -x+1/2'
  142  '-y+1/2, z, x+1/2'
  143  'x+1/2, -z, y+1/2'
  144  '-x+1/2, z, -y+1/2'
  145  'x, y+1/2, z+1/2'
  146  '-x, -y+1/2, -z+1/2'
  147  '-y, x+1/2, z+1/2'
  148  'y, -x+1/2, -z+1/2'
  149  '-x, -y+1/2, z+1/2'
  150  'x, y+1/2, -z+1/2'
  151  'y, -x+1/2, z+1/2'
  152  '-y, x+1/2, -z+1/2'
  153  'x, -y+1/2, -z+1/2'
  154  '-x, y+1/2, z+1/2'
  155  '-y, -x+1/2, -z+1/2'
  156  'y, x+1/2, z+1/2'
  157  '-x, y+1/2, -z+1/2'
  158  'x, -y+1/2, z+1/2'
  159  'y, x+1/2, -z+1/2'
  160  '-y, -x+1/2, z+1/2'
  161  'z, x+1/2, y+1/2'
  162  '-z, -x+1/2, -y+1/2'
  163  'z, -y+1/2, x+1/2'
  164  '-z, y+1/2, -x+1/2'
  165  'z, -x+1/2, -y+1/2'
  166  '-z, x+1/2, y+1/2'
  167  'z, y+1/2, -x+1/2'
  168  '-z, -y+1/2, x+1/2'
  169  '-z, x+1/2, -y+1/2'
  170  'z, -x+1/2, y+1/2'
  171  '-z, -y+1/2, -x+1/2'
  172  'z, y+1/2, x+1/2'
  173  '-z, -x+1/2, y+1/2'
  174  'z, x+1/2, -y+1/2'
  175  '-z, y+1/2, x+1/2'
  176  'z, -y+1/2, -x+1/2'
  177  'y, z+1/2, x+1/2'
  178  '-y, -z+1/2, -x+1/2'
  179  'x, z+1/2, -y+1/2'
  180  '-x, -z+1/2, y+1/2'
  181  '-y, z+1/2, -x+1/2'
  182  'y, -z+1/2, x+1/2'
  183  '-x, z+1/2, y+1/2'
  184  'x, -z+1/2, -y+1/2'
  185  '-y, -z+1/2, x+1/2'
  186  'y, z+1/2, -x+1/2'
  187  '-x, -z+1/2, -y+1/2'
  188  'x, z+1/2, y+1/2'
  189  'y, -z+1/2, -x+1/2'
  190  '-y, z+1/2, x+1/2'
  191  'x, -z+1/2, y+1/2'
  192  '-x, z+1/2, -y+1/2'
loop_
 _atom_site_type_symbol
 _atom_site_label
 _atom_site_symmetry_multiplicity
 _atom_site_fract_x
 _atom_site_fract_y
 _atom_site_fract_z
 _atom_site_occupancy
  Au  Au0  4  0.00000000  0.00000000  0.00000000  1
# generated using pymatgen
data_ID_48
_symmetry_space_group_name_H-M   Pm-3m
_cell_length_a   2.70689835
_cell_length_b   2.70689835
_cell_length_c   2.70689835
_cell_angle_alpha   90.00000000
_cell_angle_beta   90.00000000
_cell_angle_gamma   90.00000000
_symmetry_Int_Tables_number   221
_chemical_formula_structural   Au
_cell_volume   19.83425272
_cell_formula_units_Z   1
loop_
 _symmetry_equiv_pos_site_id
 _symmetry_equiv_pos_as_xyz
  1  'x, y, z'
  2  '-x, -y, -z'
  3  '-y, x, z'
  4  'y, -x, -z'
  5  '-x, -y, z'
  6  'x, y, -z'
  7  'y, -x, z'
  8  '-y, x, -z'
  9  'x, -y, -z'
  10  '-x, y, z'
  11  '-y, -x, -z'
  12  'y, x, z'
  13  '-x, y, -z'
  14  'x, -y, z'
  15  'y, x, -z'
  16  '-y, -x, z'
  17  'z, x, y'
  18  '-z, -x, -y'
  19  'z, -y, x'
  20  '-z, y, -x'
  21  'z, -x, -y'
  22  '-z, x, y'
  23  'z, y, -x'
  24  '-z, -y, x'
  25  '-z, x, -y'
  26  'z, -x, y'
  27  '-z, -y, -x'
  28  'z, y, x'
  29  '-z, -x, y'
  30  'z, x, -y'
  31  '-z, y, x'
  32  'z, -y, -x'
  33  'y, z, x'
  34  '-y, -z, -x'
  35  'x, z, -y'
  36  '-x, -z, y'
  37  '-y, z, -x'
  38  'y, -z, x'
  39  '-x, z, y'
  40  'x, -z, -y'
  41  '-y, -z, x'
  42  'y, z, -x'
  43  '-x, -z, -y'
  44  'x, z, y'
  45  'y, -z, -x'
  46  '-y, z, x'
  47  'x, -z, y'
  48  '-x, z, -y'
loop_
 _atom_site_type_symbol
 _atom_site_label
 _atom_site_symmetry_multiplicity
 _atom_site_fract_x
 _atom_site_fract_y
 _atom_site_fract_z
 _atom_site_occupancy
  Au  Au0  1  0.50000000  0.50000000  0.50000000  1
# generated using pymatgen
data_ID_49
_symmetry_space_group_name_H-M   I4/mmm
_cell_length_a   3.34562399
_cell_length_b   3.34562399
_cell_length_c   3.01046752
_cell_angle_alpha   90.00000000
_cell_angle_beta   90.00000000
_cell_angle_gamma   90.00000000
_symmetry_Int_Tables_number   139
_chemical_formula_structural   Au
_cell_volume   33.69676471
_cell_formula_units_Z   2
loop_
 _symmetry_equiv_pos_site_id
 _symmetry_equiv_pos_as_xyz
  1  'x, y, z'
  2  '-x, -y, -z'
  3  '-y, x, z'
  4  'y, -x, -z'
  5  '-x, -y, z'
  6  'x, y, -z'
  7  'y, -x, z'
  8  '-y, x, -z'
  9  'x, -y, -z'
  10  '-x, y, z'
  11  '-y, -x, -z'
  12  'y, x, z'
  13  '-x, y, -z'
  14  'x, -y, z'
  15  'y, x, -z'
  16  '-y, -x, z'
  17  'x+1/2, y+1/2, z+1/2'
  18  '-x+1/2, -y+1/2, -z+1/2'
  19  '-y+1/2, x+1/2, z+1/2'
  20  'y+1/2, -x+1/2, -z+1/2'
  21  '-x+1/2, -y+1/2, z+1/2'
  22  'x+1/2, y+1/2, -z+1/2'
  23  'y+1/2, -x+1/2, z+1/2'
  24  '-y+1/2, x+1/2, -z+1/2'
  25  'x+1/2, -y+1/2, -z+1/2'
  26  '-x+1/2, y+1/2, z+1/2'
  27  '-y+1/2, -x+1/2, -z+1/2'
  28  'y+1/2, x+1/2, z+1/2'
  29  '-x+1/2, y+1/2, -z+1/2'
  30  'x+1/2, -y+1/2, z+1/2'
  31  'y+1/2, x+1/2, -z+1/2'
  32  '-y+1/2, -x+1/2, z+1/2'
loop_
 _atom_site_type_symbol
 _atom_site_label
 _atom_site_symmetry_multiplicity
 _atom_site_fract_x
 _atom_site_fract_y
 _atom_site_fract_z
 _atom_site_occupancy
  Au  Au0  2  0.00000000  0.00000000  0.00000000  1
# generated using pymatgen
data_ID_50
_symmetry_space_group_name_H-M   P6/mmm
_cell_length_a   5.42259451
_cell_length_b   5.42259451
_cell_length_c   2.74203290
_cell_angle_alpha   90.00000000
_cell_angle_beta   90.00000000
_cell_angle_gamma   120.00000000
_symmetry_Int_Tables_number   191
_chemical_formula_structural   Au
_cell_volume   69.82606269
_cell_formula_units_Z   4
loop_
 _symmetry_equiv_pos_site_id
 _symmetry_equiv_pos_as_xyz
  1  'x, y, z'
  2  '-x, -y, -z'
  3  'x-y, x, z'
  4  '-x+y, -x, -z'
  5  '-y, x-y, z'
  6  'y, -x+y, -z'
  7  '-x, -y, z'
  8  'x, y, -z'
  9  '-x+y, -x, z'
  10  'x-y, x, -z'
  11  'y, -x+y, z'
  12  '-y, x-y, -z'
  13  '-y, -x, -z'
  14  'y, x, z'
  15  '-x, -x+y, -z'
  16  'x, x-y, z'
  17  '-x+y, y, -z'
  18  'x-y, -y, z'
  19  'y, x, -z'
  20  '-y, -x, z'
  21  'x, x-y, -z'
  22  '-x, -x+y, z'
  23  'x-y, -y, -z'
  24  '-x+y, y, z'
loop_
 _atom_site_type_symbol
 _atom_site_label
 _atom_site_symmetry_multiplicity
 _atom_site_fract_x
 _atom_site_fract_y
 _atom_site_fract_z
 _atom_site_occupancy
  Au  Au0  3  0.00000000  0.50000000  0.00000000  1
  Au  Au1  1  0.00000000  0.00000000  0.50000000  1
# generated using pymatgen
data_ID_51
_symmetry_space_group_name_H-M   P31m
_cell_length_a   4.88580515
_cell_length_b   4.88580515
_cell_length_c   7.26464778
_cell_angle_alpha   90.00000000
_cell_angle_beta   90.00000000
_cell_angle_gamma   120.00000000
_symmetry_Int_Tables_number   157
_chemical_formula_structural   Au
_cell_volume   150.18186082
_cell_formula_units_Z   8
loop_
 _symmetry_equiv_pos_site_id
 _symmetry_equiv_pos_as_xyz
  1  'x, y, z'
  2  '-y, x-y, z'
  3  '-x+y, -x, z'
  4  'y, x, z'
  5  'x-y, -y, z'
  6  '-x, -x+y, z'
loop_
 _atom_site_type_symbol
 _atom_site_label
 _atom_site_symmetry_multiplicity
 _atom_site_fract_x
 _atom_site_fract_y
 _atom_site_fract_z
 _atom_site_occupancy
  Au  Au0  3  0.00000000  0.32866350  0.30802850  1
  Au  Au1  2  0.33333333  0.66666667  0.61953246  1
  Au  Au2  2  0.33333333  0.66666667  0.98954357  1
  Au  Au3  1  0.00000000  0.00000000  0.97068700  1
# generated using pymatgen
data_ID_52
_symmetry_space_group_name_H-M   P6/mmm
_cell_length_a   4.75101727
_cell_length_b   4.75101727
_cell_length_c   5.10278187
_cell_angle_alpha   90.00000000
_cell_angle_beta   90.00000000
_cell_angle_gamma   120.00000000
_symmetry_Int_Tables_number   191
_chemical_formula_structural   Au
_cell_volume   99.74952898
_cell_formula_units_Z   4
loop_
 _symmetry_equiv_pos_site_id
 _symmetry_equiv_pos_as_xyz
  1  'x, y, z'
  2  '-x, -y, -z'
  3  'x-y, x, z'
  4  '-x+y, -x, -z'
  5  '-y, x-y, z'
  6  'y, -x+y, -z'
  7  '-x, -y, z'
  8  'x, y, -z'
  9  '-x+y, -x, z'
  10  'x-y, x, -z'
  11  'y, -x+y, z'
  12  '-y, x-y, -z'
  13  '-y, -x, -z'
  14  'y, x, z'
  15  '-x, -x+y, -z'
  16  'x, x-y, z'
  17  '-x+y, y, -z'
  18  'x-y, -y, z'
  19  'y, x, -z'
  20  '-y, -x, z'
  21  'x, x-y, -z'
  22  '-x, -x+y, z'
  23  'x-y, -y, -z'
  24  '-x+y, y, z'
loop_
 _atom_site_type_symbol
 _atom_site_label
 _atom_site_symmetry_multiplicity
 _atom_site_fract_x
 _atom_site_fract_y
 _atom_site_fract_z
 _atom_site_occupancy
  Au  Au0  2  0.33333333  0.66666667  0.00000000  1
  Au  Au1  1  0.00000000  0.00000000  0.00000000  1
  Au  Au2  1  0.00000000  0.00000000  0.50000000  1
# generated using pymatgen
data_ID_53
_symmetry_space_group_name_H-M   Fm-3m
_cell_length_a   4.05585672
_cell_length_b   4.05585672
_cell_length_c   4.05585672
_cell_angle_alpha   90.00000000
_cell_angle_beta   90.00000000
_cell_angle_gamma   90.00000000
_symmetry_Int_Tables_number   225
_chemical_formula_structural   Au
_cell_volume   66.71873661
_cell_formula_units_Z   4
loop_
 _symmetry_equiv_pos_site_id
 _symmetry_equiv_pos_as_xyz
  1  'x, y, z'
  2  '-x, -y, -z'
  3  '-y, x, z'
  4  'y, -x, -z'
  5  '-x, -y, z'
  6  'x, y, -z'
  7  'y, -x, z'
  8  '-y, x, -z'
  9  'x, -y, -z'
  10  '-x, y, z'
  11  '-y, -x, -z'
  12  'y, x, z'
  13  '-x, y, -z'
  14  'x, -y, z'
  15  'y, x, -z'
  16  '-y, -x, z'
  17  'z, x, y'
  18  '-z, -x, -y'
  19  'z, -y, x'
  20  '-z, y, -x'
  21  'z, -x, -y'
  22  '-z, x, y'
  23  'z, y, -x'
  24  '-z, -y, x'
  25  '-z, x, -y'
  26  'z, -x, y'
  27  '-z, -y, -x'
  28  'z, y, x'
  29  '-z, -x, y'
  30  'z, x, -y'
  31  '-z, y, x'
  32  'z, -y, -x'
  33  'y, z, x'
  34  '-y, -z, -x'
  35  'x, z, -y'
  36  '-x, -z, y'
  37  '-y, z, -x'
  38  'y, -z, x'
  39  '-x, z, y'
  40  'x, -z, -y'
  41  '-y, -z, x'
  42  'y, z, -x'
  43  '-x, -z, -y'
  44  'x, z, y'
  45  'y, -z, -x'
  46  '-y, z, x'
  47  'x, -z, y'
  48  '-x, z, -y'
  49  'x+1/2, y+1/2, z'
  50  '-x+1/2, -y+1/2, -z'
  51  '-y+1/2, x+1/2, z'
  52  'y+1/2, -x+1/2, -z'
  53  '-x+1/2, -y+1/2, z'
  54  'x+1/2, y+1/2, -z'
  55  'y+1/2, -x+1/2, z'
  56  '-y+1/2, x+1/2, -z'
  57  'x+1/2, -y+1/2, -z'
  58  '-x+1/2, y+1/2, z'
  59  '-y+1/2, -x+1/2, -z'
  60  'y+1/2, x+1/2, z'
  61  '-x+1/2, y+1/2, -z'
  62  'x+1/2, -y+1/2, z'
  63  'y+1/2, x+1/2, -z'
  64  '-y+1/2, -x+1/2, z'
  65  'z+1/2, x+1/2, y'
  66  '-z+1/2, -x+1/2, -y'
  67  'z+1/2, -y+1/2, x'
  68  '-z+1/2, y+1/2, -x'
  69  'z+1/2, -x+1/2, -y'
  70  '-z+1/2, x+1/2, y'
  71  'z+1/2, y+1/2, -x'
  72  '-z+1/2, -y+1/2, x'
  73  '-z+1/2, x+1/2, -y'
  74  'z+1/2, -x+1/2, y'
  75  '-z+1/2, -y+1/2, -x'
  76  'z+1/2, y+1/2, x'
  77  '-z+1/2, -x+1/2, y'
  78  'z+1/2, x+1/2, -y'
  79  '-z+1/2, y+1/2, x'
  80  'z+1/2, -y+1/2, -x'
  81  'y+1/2, z+1/2, x'
  82  '-y+1/2, -z+1/2, -x'
  83  'x+1/2, z+1/2, -y'
  84  '-x+1/2, -z+1/2, y'
  85  '-y+1/2, z+1/2, -x'
  86  'y+1/2, -z+1/2, x'
  87  '-x+1/2, z+1/2, y'
  88  'x+1/2, -z+1/2, -y'
  89  '-y+1/2, -z+1/2, x'
  90  'y+1/2, z+1/2, -x'
  91  '-x+1/2, -z+1/2, -y'
  92  'x+1/2, z+1/2, y'
  93  'y+1/2, -z+1/2, -x'
  94  '-y+1/2, z+1/2, x'
  95  'x+1/2, -z+1/2, y'
  96  '-x+1/2, z+1/2, -y'
  97  'x+1/2, y, z+1/2'
  98  '-x+1/2, -y, -z+1/2'
  99  '-y+1/2, x, z+1/2'
  100  'y+1/2, -x, -z+1/2'
  101  '-x+1/2, -y, z+1/2'
  102  'x+1/2, y, -z+1/2'
  103  'y+1/2, -x, z+1/2'
  104  '-y+1/2, x, -z+1/2'
  105  'x+1/2, -y, -z+1/2'
  106  '-x+1/2, y, z+1/2'
  107  '-y+1/2, -x, -z+1/2'
  108  'y+1/2, x, z+1/2'
  109  '-x+1/2, y, -z+1/2'
  110  'x+1/2, -y, z+1/2'
  111  'y+1/2, x, -z+1/2'
  112  '-y+1/2, -x, z+1/2'
  113  'z+1/2, x, y+1/2'
  114  '-z+1/2, -x, -y+1/2'
  115  'z+1/2, -y, x+1/2'
  116  '-z+1/2, y, -x+1/2'
  117  'z+1/2, -x, -y+1/2'
  118  '-z+1/2, x, y+1/2'
  119  'z+1/2, y, -x+1/2'
  120  '-z+1/2, -y, x+1/2'
  121  '-z+1/2, x, -y+1/2'
  122  'z+1/2, -x, y+1/2'
  123  '-z+1/2, -y, -x+1/2'
  124  'z+1/2, y, x+1/2'
  125  '-z+1/2, -x, y+1/2'
  126  'z+1/2, x, -y+1/2'
  127  '-z+1/2, y, x+1/2'
  128  'z+1/2, -y, -x+1/2'
  129  'y+1/2, z, x+1/2'
  130  '-y+1/2, -z, -x+1/2'
  131  'x+1/2, z, -y+1/2'
  132  '-x+1/2, -z, y+1/2'
  133  '-y+1/2, z, -x+1/2'
  134  'y+1/2, -z, x+1/2'
  135  '-x+1/2, z, y+1/2'
  136  'x+1/2, -z, -y+1/2'
  137  '-y+1/2, -z, x+1/2'
  138  'y+1/2, z, -x+1/2'
  139  '-x+1/2, -z, -y+1/2'
  140  'x+1/2, z, y+1/2'
  141  'y+1/2, -z, -x+1/2'
  142  '-y+1/2, z, x+1/2'
  143  'x+1/2, -z, y+1/2'
  144  '-x+1/2, z, -y+1/2'
  145  'x, y+1/2, z+1/2'
  146  '-x, -y+1/2, -z+1/2'
  147  '-y, x+1/2, z+1/2'
  148  'y, -x+1/2, -z+1/2'
  149  '-x, -y+1/2, z+1/2'
  150  'x, y+1/2, -z+1/2'
  151  'y, -x+1/2, z+1/2'
  152  '-y, x+1/2, -z+1/2'
  153  'x, -y+1/2, -z+1/2'
  154  '-x, y+1/2, z+1/2'
  155  '-y, -x+1/2, -z+1/2'
  156  'y, x+1/2, z+1/2'
  157  '-x, y+1/2, -z+1/2'
  158  'x, -y+1/2, z+1/2'
  159  'y, x+1/2, -z+1/2'
  160  '-y, -x+1/2, z+1/2'
  161  'z, x+1/2, y+1/2'
  162  '-z, -x+1/2, -y+1/2'
  163  'z, -y+1/2, x+1/2'
  164  '-z, y+1/2, -x+1/2'
  165  'z, -x+1/2, -y+1/2'
  166  '-z, x+1/2, y+1/2'
  167  'z, y+1/2, -x+1/2'
  168  '-z, -y+1/2, x+1/2'
  169  '-z, x+1/2, -y+1/2'
  170  'z, -x+1/2, y+1/2'
  171  '-z, -y+1/2, -x+1/2'
  172  'z, y+1/2, x+1/2'
  173  '-z, -x+1/2, y+1/2'
  174  'z, x+1/2, -y+1/2'
  175  '-z, y+1/2, x+1/2'
  176  'z, -y+1/2, -x+1/2'
  177  'y, z+1/2, x+1/2'
  178  '-y, -z+1/2, -x+1/2'
  179  'x, z+1/2, -y+1/2'
  180  '-x, -z+1/2, y+1/2'
  181  '-y, z+1/2, -x+1/2'
  182  'y, -z+1/2, x+1/2'
  183  '-x, z+1/2, y+1/2'
  184  'x, -z+1/2, -y+1/2'
  185  '-y, -z+1/2, x+1/2'
  186  'y, z+1/2, -x+1/2'
  187  '-x, -z+1/2, -y+1/2'
  188  'x, z+1/2, y+1/2'
  189  'y, -z+1/2, -x+1/2'
  190  '-y, z+1/2, x+1/2'
  191  'x, -z+1/2, y+1/2'
  192  '-x, z+1/2, -y+1/2'
loop_
 _atom_site_type_symbol
 _atom_site_label
 _atom_site_symmetry_multiplicity
 _atom_site_fract_x
 _atom_site_fract_y
 _atom_site_fract_z
 _atom_site_occupancy
  Au  Au0  4  0.00000000  0.00000000  0.50000000  1
# generated using pymatgen
data_ID_54
_symmetry_space_group_name_H-M   P6/mmm
_cell_length_a   2.79253212
_cell_length_b   2.79253212
_cell_length_c   2.72800973
_cell_angle_alpha   90.00000000
_cell_angle_beta   90.00000000
_cell_angle_gamma   120.00000000
_symmetry_Int_Tables_number   191
_chemical_formula_structural   Au
_cell_volume   18.42353235
_cell_formula_units_Z   1
loop_
 _symmetry_equiv_pos_site_id
 _symmetry_equiv_pos_as_xyz
  1  'x, y, z'
  2  '-x, -y, -z'
  3  'x-y, x, z'
  4  '-x+y, -x, -z'
  5  '-y, x-y, z'
  6  'y, -x+y, -z'
  7  '-x, -y, z'
  8  'x, y, -z'
  9  '-x+y, -x, z'
  10  'x-y, x, -z'
  11  'y, -x+y, z'
  12  '-y, x-y, -z'
  13  '-y, -x, -z'
  14  'y, x, z'
  15  '-x, -x+y, -z'
  16  'x, x-y, z'
  17  '-x+y, y, -z'
  18  'x-y, -y, z'
  19  'y, x, -z'
  20  '-y, -x, z'
  21  'x, x-y, -z'
  22  '-x, -x+y, z'
  23  'x-y, -y, -z'
  24  '-x+y, y, z'
loop_
 _atom_site_type_symbol
 _atom_site_label
 _atom_site_symmetry_multiplicity
 _atom_site_fract_x
 _atom_site_fract_y
 _atom_site_fract_z
 _atom_site_occupancy
  Au  Au0  1  0.00000000  0.00000000  0.00000000  1
# generated using pymatgen
data_ID_55
_symmetry_space_group_name_H-M   P4/mmm
_cell_length_a   2.76866459
_cell_length_b   2.76866459
_cell_length_c   9.63579894
_cell_angle_alpha   90.00000000
_cell_angle_beta   90.00000000
_cell_angle_gamma   90.00000000
_symmetry_Int_Tables_number   123
_chemical_formula_structural   Au
_cell_volume   73.86325162
_cell_formula_units_Z   4
loop_
 _symmetry_equiv_pos_site_id
 _symmetry_equiv_pos_as_xyz
  1  'x, y, z'
  2  '-x, -y, -z'
  3  '-y, x, z'
  4  'y, -x, -z'
  5  '-x, -y, z'
  6  'x, y, -z'
  7  'y, -x, z'
  8  '-y, x, -z'
  9  'x, -y, -z'
  10  '-x, y, z'
  11  '-y, -x, -z'
  12  'y, x, z'
  13  '-x, y, -z'
  14  'x, -y, z'
  15  'y, x, -z'
  16  '-y, -x, z'
loop_
 _atom_site_type_symbol
 _atom_site_label
 _atom_site_symmetry_multiplicity
 _atom_site_fract_x
 _atom_site_fract_y
 _atom_site_fract_z
 _atom_site_occupancy
  Au  Au0  2  0.50000000  0.50000000  0.21991781  1
  Au  Au1  1  0.00000000  0.00000000  0.00000000  1
  Au  Au2  1  0.50000000  0.50000000  0.50000000  1
# generated using pymatgen
data_ID_56
_symmetry_space_group_name_H-M   Fm-3m
_cell_length_a   4.05667585
_cell_length_b   4.05667585
_cell_length_c   4.05667585
_cell_angle_alpha   90.00000000
_cell_angle_beta   90.00000000
_cell_angle_gamma   90.00000000
_symmetry_Int_Tables_number   225
_chemical_formula_structural   Au
_cell_volume   66.75916864
_cell_formula_units_Z   4
loop_
 _symmetry_equiv_pos_site_id
 _symmetry_equiv_pos_as_xyz
  1  'x, y, z'
  2  '-x, -y, -z'
  3  '-y, x, z'
  4  'y, -x, -z'
  5  '-x, -y, z'
  6  'x, y, -z'
  7  'y, -x, z'
  8  '-y, x, -z'
  9  'x, -y, -z'
  10  '-x, y, z'
  11  '-y, -x, -z'
  12  'y, x, z'
  13  '-x, y, -z'
  14  'x, -y, z'
  15  'y, x, -z'
  16  '-y, -x, z'
  17  'z, x, y'
  18  '-z, -x, -y'
  19  'z, -y, x'
  20  '-z, y, -x'
  21  'z, -x, -y'
  22  '-z, x, y'
  23  'z, y, -x'
  24  '-z, -y, x'
  25  '-z, x, -y'
  26  'z, -x, y'
  27  '-z, -y, -x'
  28  'z, y, x'
  29  '-z, -x, y'
  30  'z, x, -y'
  31  '-z, y, x'
  32  'z, -y, -x'
  33  'y, z, x'
  34  '-y, -z, -x'
  35  'x, z, -y'
  36  '-x, -z, y'
  37  '-y, z, -x'
  38  'y, -z, x'
  39  '-x, z, y'
  40  'x, -z, -y'
  41  '-y, -z, x'
  42  'y, z, -x'
  43  '-x, -z, -y'
  44  'x, z, y'
  45  'y, -z, -x'
  46  '-y, z, x'
  47  'x, -z, y'
  48  '-x, z, -y'
  49  'x+1/2, y+1/2, z'
  50  '-x+1/2, -y+1/2, -z'
  51  '-y+1/2, x+1/2, z'
  52  'y+1/2, -x+1/2, -z'
  53  '-x+1/2, -y+1/2, z'
  54  'x+1/2, y+1/2, -z'
  55  'y+1/2, -x+1/2, z'
  56  '-y+1/2, x+1/2, -z'
  57  'x+1/2, -y+1/2, -z'
  58  '-x+1/2, y+1/2, z'
  59  '-y+1/2, -x+1/2, -z'
  60  'y+1/2, x+1/2, z'
  61  '-x+1/2, y+1/2, -z'
  62  'x+1/2, -y+1/2, z'
  63  'y+1/2, x+1/2, -z'
  64  '-y+1/2, -x+1/2, z'
  65  'z+1/2, x+1/2, y'
  66  '-z+1/2, -x+1/2, -y'
  67  'z+1/2, -y+1/2, x'
  68  '-z+1/2, y+1/2, -x'
  69  'z+1/2, -x+1/2, -y'
  70  '-z+1/2, x+1/2, y'
  71  'z+1/2, y+1/2, -x'
  72  '-z+1/2, -y+1/2, x'
  73  '-z+1/2, x+1/2, -y'
  74  'z+1/2, -x+1/2, y'
  75  '-z+1/2, -y+1/2, -x'
  76  'z+1/2, y+1/2, x'
  77  '-z+1/2, -x+1/2, y'
  78  'z+1/2, x+1/2, -y'
  79  '-z+1/2, y+1/2, x'
  80  'z+1/2, -y+1/2, -x'
  81  'y+1/2, z+1/2, x'
  82  '-y+1/2, -z+1/2, -x'
  83  'x+1/2, z+1/2, -y'
  84  '-x+1/2, -z+1/2, y'
  85  '-y+1/2, z+1/2, -x'
  86  'y+1/2, -z+1/2, x'
  87  '-x+1/2, z+1/2, y'
  88  'x+1/2, -z+1/2, -y'
  89  '-y+1/2, -z+1/2, x'
  90  'y+1/2, z+1/2, -x'
  91  '-x+1/2, -z+1/2, -y'
  92  'x+1/2, z+1/2, y'
  93  'y+1/2, -z+1/2, -x'
  94  '-y+1/2, z+1/2, x'
  95  'x+1/2, -z+1/2, y'
  96  '-x+1/2, z+1/2, -y'
  97  'x+1/2, y, z+1/2'
  98  '-x+1/2, -y, -z+1/2'
  99  '-y+1/2, x, z+1/2'
  100  'y+1/2, -x, -z+1/2'
  101  '-x+1/2, -y, z+1/2'
  102  'x+1/2, y, -z+1/2'
  103  'y+1/2, -x, z+1/2'
  104  '-y+1/2, x, -z+1/2'
  105  'x+1/2, -y, -z+1/2'
  106  '-x+1/2, y, z+1/2'
  107  '-y+1/2, -x, -z+1/2'
  108  'y+1/2, x, z+1/2'
  109  '-x+1/2, y, -z+1/2'
  110  'x+1/2, -y, z+1/2'
  111  'y+1/2, x, -z+1/2'
  112  '-y+1/2, -x, z+1/2'
  113  'z+1/2, x, y+1/2'
  114  '-z+1/2, -x, -y+1/2'
  115  'z+1/2, -y, x+1/2'
  116  '-z+1/2, y, -x+1/2'
  117  'z+1/2, -x, -y+1/2'
  118  '-z+1/2, x, y+1/2'
  119  'z+1/2, y, -x+1/2'
  120  '-z+1/2, -y, x+1/2'
  121  '-z+1/2, x, -y+1/2'
  122  'z+1/2, -x, y+1/2'
  123  '-z+1/2, -y, -x+1/2'
  124  'z+1/2, y, x+1/2'
  125  '-z+1/2, -x, y+1/2'
  126  'z+1/2, x, -y+1/2'
  127  '-z+1/2, y, x+1/2'
  128  'z+1/2, -y, -x+1/2'
  129  'y+1/2, z, x+1/2'
  130  '-y+1/2, -z, -x+1/2'
  131  'x+1/2, z, -y+1/2'
  132  '-x+1/2, -z, y+1/2'
  133  '-y+1/2, z, -x+1/2'
  134  'y+1/2, -z, x+1/2'
  135  '-x+1/2, z, y+1/2'
  136  'x+1/2, -z, -y+1/2'
  137  '-y+1/2, -z, x+1/2'
  138  'y+1/2, z, -x+1/2'
  139  '-x+1/2, -z, -y+1/2'
  140  'x+1/2, z, y+1/2'
  141  'y+1/2, -z, -x+1/2'
  142  '-y+1/2, z, x+1/2'
  143  'x+1/2, -z, y+1/2'
  144  '-x+1/2, z, -y+1/2'
  145  'x, y+1/2, z+1/2'
  146  '-x, -y+1/2, -z+1/2'
  147  '-y, x+1/2, z+1/2'
  148  'y, -x+1/2, -z+1/2'
  149  '-x, -y+1/2, z+1/2'
  150  'x, y+1/2, -z+1/2'
  151  'y, -x+1/2, z+1/2'
  152  '-y, x+1/2, -z+1/2'
  153  'x, -y+1/2, -z+1/2'
  154  '-x, y+1/2, z+1/2'
  155  '-y, -x+1/2, -z+1/2'
  156  'y, x+1/2, z+1/2'
  157  '-x, y+1/2, -z+1/2'
  158  'x, -y+1/2, z+1/2'
  159  'y, x+1/2, -z+1/2'
  160  '-y, -x+1/2, z+1/2'
  161  'z, x+1/2, y+1/2'
  162  '-z, -x+1/2, -y+1/2'
  163  'z, -y+1/2, x+1/2'
  164  '-z, y+1/2, -x+1/2'
  165  'z, -x+1/2, -y+1/2'
  166  '-z, x+1/2, y+1/2'
  167  'z, y+1/2, -x+1/2'
  168  '-z, -y+1/2, x+1/2'
  169  '-z, x+1/2, -y+1/2'
  170  'z, -x+1/2, y+1/2'
  171  '-z, -y+1/2, -x+1/2'
  172  'z, y+1/2, x+1/2'
  173  '-z, -x+1/2, y+1/2'
  174  'z, x+1/2, -y+1/2'
  175  '-z, y+1/2, x+1/2'
  176  'z, -y+1/2, -x+1/2'
  177  'y, z+1/2, x+1/2'
  178  '-y, -z+1/2, -x+1/2'
  179  'x, z+1/2, -y+1/2'
  180  '-x, -z+1/2, y+1/2'
  181  '-y, z+1/2, -x+1/2'
  182  'y, -z+1/2, x+1/2'
  183  '-x, z+1/2, y+1/2'
  184  'x, -z+1/2, -y+1/2'
  185  '-y, -z+1/2, x+1/2'
  186  'y, z+1/2, -x+1/2'
  187  '-x, -z+1/2, -y+1/2'
  188  'x, z+1/2, y+1/2'
  189  'y, -z+1/2, -x+1/2'
  190  '-y, z+1/2, x+1/2'
  191  'x, -z+1/2, y+1/2'
  192  '-x, z+1/2, -y+1/2'
loop_
 _atom_site_type_symbol
 _atom_site_label
 _atom_site_symmetry_multiplicity
 _atom_site_fract_x
 _atom_site_fract_y
 _atom_site_fract_z
 _atom_site_occupancy
  Au  Au0  4  0.00000000  0.00000000  0.50000000  1
# generated using pymatgen
data_ID_57
_symmetry_space_group_name_H-M   Fm-3m
_cell_length_a   4.05602376
_cell_length_b   4.05602376
_cell_length_c   4.05602376
_cell_angle_alpha   90.00000000
_cell_angle_beta   90.00000000
_cell_angle_gamma   90.00000000
_symmetry_Int_Tables_number   225
_chemical_formula_structural   Au
_cell_volume   66.72698041
_cell_formula_units_Z   4
loop_
 _symmetry_equiv_pos_site_id
 _symmetry_equiv_pos_as_xyz
  1  'x, y, z'
  2  '-x, -y, -z'
  3  '-y, x, z'
  4  'y, -x, -z'
  5  '-x, -y, z'
  6  'x, y, -z'
  7  'y, -x, z'
  8  '-y, x, -z'
  9  'x, -y, -z'
  10  '-x, y, z'
  11  '-y, -x, -z'
  12  'y, x, z'
  13  '-x, y, -z'
  14  'x, -y, z'
  15  'y, x, -z'
  16  '-y, -x, z'
  17  'z, x, y'
  18  '-z, -x, -y'
  19  'z, -y, x'
  20  '-z, y, -x'
  21  'z, -x, -y'
  22  '-z, x, y'
  23  'z, y, -x'
  24  '-z, -y, x'
  25  '-z, x, -y'
  26  'z, -x, y'
  27  '-z, -y, -x'
  28  'z, y, x'
  29  '-z, -x, y'
  30  'z, x, -y'
  31  '-z, y, x'
  32  'z, -y, -x'
  33  'y, z, x'
  34  '-y, -z, -x'
  35  'x, z, -y'
  36  '-x, -z, y'
  37  '-y, z, -x'
  38  'y, -z, x'
  39  '-x, z, y'
  40  'x, -z, -y'
  41  '-y, -z, x'
  42  'y, z, -x'
  43  '-x, -z, -y'
  44  'x, z, y'
  45  'y, -z, -x'
  46  '-y, z, x'
  47  'x, -z, y'
  48  '-x, z, -y'
  49  'x+1/2, y+1/2, z'
  50  '-x+1/2, -y+1/2, -z'
  51  '-y+1/2, x+1/2, z'
  52  'y+1/2, -x+1/2, -z'
  53  '-x+1/2, -y+1/2, z'
  54  'x+1/2, y+1/2, -z'
  55  'y+1/2, -x+1/2, z'
  56  '-y+1/2, x+1/2, -z'
  57  'x+1/2, -y+1/2, -z'
  58  '-x+1/2, y+1/2, z'
  59  '-y+1/2, -x+1/2, -z'
  60  'y+1/2, x+1/2, z'
  61  '-x+1/2, y+1/2, -z'
  62  'x+1/2, -y+1/2, z'
  63  'y+1/2, x+1/2, -z'
  64  '-y+1/2, -x+1/2, z'
  65  'z+1/2, x+1/2, y'
  66  '-z+1/2, -x+1/2, -y'
  67  'z+1/2, -y+1/2, x'
  68  '-z+1/2, y+1/2, -x'
  69  'z+1/2, -x+1/2, -y'
  70  '-z+1/2, x+1/2, y'
  71  'z+1/2, y+1/2, -x'
  72  '-z+1/2, -y+1/2, x'
  73  '-z+1/2, x+1/2, -y'
  74  'z+1/2, -x+1/2, y'
  75  '-z+1/2, -y+1/2, -x'
  76  'z+1/2, y+1/2, x'
  77  '-z+1/2, -x+1/2, y'
  78  'z+1/2, x+1/2, -y'
  79  '-z+1/2, y+1/2, x'
  80  'z+1/2, -y+1/2, -x'
  81  'y+1/2, z+1/2, x'
  82  '-y+1/2, -z+1/2, -x'
  83  'x+1/2, z+1/2, -y'
  84  '-x+1/2, -z+1/2, y'
  85  '-y+1/2, z+1/2, -x'
  86  'y+1/2, -z+1/2, x'
  87  '-x+1/2, z+1/2, y'
  88  'x+1/2, -z+1/2, -y'
  89  '-y+1/2, -z+1/2, x'
  90  'y+1/2, z+1/2, -x'
  91  '-x+1/2, -z+1/2, -y'
  92  'x+1/2, z+1/2, y'
  93  'y+1/2, -z+1/2, -x'
  94  '-y+1/2, z+1/2, x'
  95  'x+1/2, -z+1/2, y'
  96  '-x+1/2, z+1/2, -y'
  97  'x+1/2, y, z+1/2'
  98  '-x+1/2, -y, -z+1/2'
  99  '-y+1/2, x, z+1/2'
  100  'y+1/2, -x, -z+1/2'
  101  '-x+1/2, -y, z+1/2'
  102  'x+1/2, y, -z+1/2'
  103  'y+1/2, -x, z+1/2'
  104  '-y+1/2, x, -z+1/2'
  105  'x+1/2, -y, -z+1/2'
  106  '-x+1/2, y, z+1/2'
  107  '-y+1/2, -x, -z+1/2'
  108  'y+1/2, x, z+1/2'
  109  '-x+1/2, y, -z+1/2'
  110  'x+1/2, -y, z+1/2'
  111  'y+1/2, x, -z+1/2'
  112  '-y+1/2, -x, z+1/2'
  113  'z+1/2, x, y+1/2'
  114  '-z+1/2, -x, -y+1/2'
  115  'z+1/2, -y, x+1/2'
  116  '-z+1/2, y, -x+1/2'
  117  'z+1/2, -x, -y+1/2'
  118  '-z+1/2, x, y+1/2'
  119  'z+1/2, y, -x+1/2'
  120  '-z+1/2, -y, x+1/2'
  121  '-z+1/2, x, -y+1/2'
  122  'z+1/2, -x, y+1/2'
  123  '-z+1/2, -y, -x+1/2'
  124  'z+1/2, y, x+1/2'
  125  '-z+1/2, -x, y+1/2'
  126  'z+1/2, x, -y+1/2'
  127  '-z+1/2, y, x+1/2'
  128  'z+1/2, -y, -x+1/2'
  129  'y+1/2, z, x+1/2'
  130  '-y+1/2, -z, -x+1/2'
  131  'x+1/2, z, -y+1/2'
  132  '-x+1/2, -z, y+1/2'
  133  '-y+1/2, z, -x+1/2'
  134  'y+1/2, -z, x+1/2'
  135  '-x+1/2, z, y+1/2'
  136  'x+1/2, -z, -y+1/2'
  137  '-y+1/2, -z, x+1/2'
  138  'y+1/2, z, -x+1/2'
  139  '-x+1/2, -z, -y+1/2'
  140  'x+1/2, z, y+1/2'
  141  'y+1/2, -z, -x+1/2'
  142  '-y+1/2, z, x+1/2'
  143  'x+1/2, -z, y+1/2'
  144  '-x+1/2, z, -y+1/2'
  145  'x, y+1/2, z+1/2'
  146  '-x, -y+1/2, -z+1/2'
  147  '-y, x+1/2, z+1/2'
  148  'y, -x+1/2, -z+1/2'
  149  '-x, -y+1/2, z+1/2'
  150  'x, y+1/2, -z+1/2'
  151  'y, -x+1/2, z+1/2'
  152  '-y, x+1/2, -z+1/2'
  153  'x, -y+1/2, -z+1/2'
  154  '-x, y+1/2, z+1/2'
  155  '-y, -x+1/2, -z+1/2'
  156  'y, x+1/2, z+1/2'
  157  '-x, y+1/2, -z+1/2'
  158  'x, -y+1/2, z+1/2'
  159  'y, x+1/2, -z+1/2'
  160  '-y, -x+1/2, z+1/2'
  161  'z, x+1/2, y+1/2'
  162  '-z, -x+1/2, -y+1/2'
  163  'z, -y+1/2, x+1/2'
  164  '-z, y+1/2, -x+1/2'
  165  'z, -x+1/2, -y+1/2'
  166  '-z, x+1/2, y+1/2'
  167  'z, y+1/2, -x+1/2'
  168  '-z, -y+1/2, x+1/2'
  169  '-z, x+1/2, -y+1/2'
  170  'z, -x+1/2, y+1/2'
  171  '-z, -y+1/2, -x+1/2'
  172  'z, y+1/2, x+1/2'
  173  '-z, -x+1/2, y+1/2'
  174  'z, x+1/2, -y+1/2'
  175  '-z, y+1/2, x+1/2'
  176  'z, -y+1/2, -x+1/2'
  177  'y, z+1/2, x+1/2'
  178  '-y, -z+1/2, -x+1/2'
  179  'x, z+1/2, -y+1/2'
  180  '-x, -z+1/2, y+1/2'
  181  '-y, z+1/2, -x+1/2'
  182  'y, -z+1/2, x+1/2'
  183  '-x, z+1/2, y+1/2'
  184  'x, -z+1/2, -y+1/2'
  185  '-y, -z+1/2, x+1/2'
  186  'y, z+1/2, -x+1/2'
  187  '-x, -z+1/2, -y+1/2'
  188  'x, z+1/2, y+1/2'
  189  'y, -z+1/2, -x+1/2'
  190  '-y, z+1/2, x+1/2'
  191  'x, -z+1/2, y+1/2'
  192  '-x, z+1/2, -y+1/2'
loop_
 _atom_site_type_symbol
 _atom_site_label
 _atom_site_symmetry_multiplicity
 _atom_site_fract_x
 _atom_site_fract_y
 _atom_site_fract_z
 _atom_site_occupancy
  Au  Au0  4  0.00000000  0.00000000  0.00000000  1
# generated using pymatgen
data_ID_58
_symmetry_space_group_name_H-M   Fm-3m
_cell_length_a   4.05588994
_cell_length_b   4.05588994
_cell_length_c   4.05588994
_cell_angle_alpha   90.00000000
_cell_angle_beta   90.00000000
_cell_angle_gamma   90.00000000
_symmetry_Int_Tables_number   225
_chemical_formula_structural   Au
_cell_volume   66.72037580
_cell_formula_units_Z   4
loop_
 _symmetry_equiv_pos_site_id
 _symmetry_equiv_pos_as_xyz
  1  'x, y, z'
  2  '-x, -y, -z'
  3  '-y, x, z'
  4  'y, -x, -z'
  5  '-x, -y, z'
  6  'x, y, -z'
  7  'y, -x, z'
  8  '-y, x, -z'
  9  'x, -y, -z'
  10  '-x, y, z'
  11  '-y, -x, -z'
  12  'y, x, z'
  13  '-x, y, -z'
  14  'x, -y, z'
  15  'y, x, -z'
  16  '-y, -x, z'
  17  'z, x, y'
  18  '-z, -x, -y'
  19  'z, -y, x'
  20  '-z, y, -x'
  21  'z, -x, -y'
  22  '-z, x, y'
  23  'z, y, -x'
  24  '-z, -y, x'
  25  '-z, x, -y'
  26  'z, -x, y'
  27  '-z, -y, -x'
  28  'z, y, x'
  29  '-z, -x, y'
  30  'z, x, -y'
  31  '-z, y, x'
  32  'z, -y, -x'
  33  'y, z, x'
  34  '-y, -z, -x'
  35  'x, z, -y'
  36  '-x, -z, y'
  37  '-y, z, -x'
  38  'y, -z, x'
  39  '-x, z, y'
  40  'x, -z, -y'
  41  '-y, -z, x'
  42  'y, z, -x'
  43  '-x, -z, -y'
  44  'x, z, y'
  45  'y, -z, -x'
  46  '-y, z, x'
  47  'x, -z, y'
  48  '-x, z, -y'
  49  'x+1/2, y+1/2, z'
  50  '-x+1/2, -y+1/2, -z'
  51  '-y+1/2, x+1/2, z'
  52  'y+1/2, -x+1/2, -z'
  53  '-x+1/2, -y+1/2, z'
  54  'x+1/2, y+1/2, -z'
  55  'y+1/2, -x+1/2, z'
  56  '-y+1/2, x+1/2, -z'
  57  'x+1/2, -y+1/2, -z'
  58  '-x+1/2, y+1/2, z'
  59  '-y+1/2, -x+1/2, -z'
  60  'y+1/2, x+1/2, z'
  61  '-x+1/2, y+1/2, -z'
  62  'x+1/2, -y+1/2, z'
  63  'y+1/2, x+1/2, -z'
  64  '-y+1/2, -x+1/2, z'
  65  'z+1/2, x+1/2, y'
  66  '-z+1/2, -x+1/2, -y'
  67  'z+1/2, -y+1/2, x'
  68  '-z+1/2, y+1/2, -x'
  69  'z+1/2, -x+1/2, -y'
  70  '-z+1/2, x+1/2, y'
  71  'z+1/2, y+1/2, -x'
  72  '-z+1/2, -y+1/2, x'
  73  '-z+1/2, x+1/2, -y'
  74  'z+1/2, -x+1/2, y'
  75  '-z+1/2, -y+1/2, -x'
  76  'z+1/2, y+1/2, x'
  77  '-z+1/2, -x+1/2, y'
  78  'z+1/2, x+1/2, -y'
  79  '-z+1/2, y+1/2, x'
  80  'z+1/2, -y+1/2, -x'
  81  'y+1/2, z+1/2, x'
  82  '-y+1/2, -z+1/2, -x'
  83  'x+1/2, z+1/2, -y'
  84  '-x+1/2, -z+1/2, y'
  85  '-y+1/2, z+1/2, -x'
  86  'y+1/2, -z+1/2, x'
  87  '-x+1/2, z+1/2, y'
  88  'x+1/2, -z+1/2, -y'
  89  '-y+1/2, -z+1/2, x'
  90  'y+1/2, z+1/2, -x'
  91  '-x+1/2, -z+1/2, -y'
  92  'x+1/2, z+1/2, y'
  93  'y+1/2, -z+1/2, -x'
  94  '-y+1/2, z+1/2, x'
  95  'x+1/2, -z+1/2, y'
  96  '-x+1/2, z+1/2, -y'
  97  'x+1/2, y, z+1/2'
  98  '-x+1/2, -y, -z+1/2'
  99  '-y+1/2, x, z+1/2'
  100  'y+1/2, -x, -z+1/2'
  101  '-x+1/2, -y, z+1/2'
  102  'x+1/2, y, -z+1/2'
  103  'y+1/2, -x, z+1/2'
  104  '-y+1/2, x, -z+1/2'
  105  'x+1/2, -y, -z+1/2'
  106  '-x+1/2, y, z+1/2'
  107  '-y+1/2, -x, -z+1/2'
  108  'y+1/2, x, z+1/2'
  109  '-x+1/2, y, -z+1/2'
  110  'x+1/2, -y, z+1/2'
  111  'y+1/2, x, -z+1/2'
  112  '-y+1/2, -x, z+1/2'
  113  'z+1/2, x, y+1/2'
  114  '-z+1/2, -x, -y+1/2'
  115  'z+1/2, -y, x+1/2'
  116  '-z+1/2, y, -x+1/2'
  117  'z+1/2, -x, -y+1/2'
  118  '-z+1/2, x, y+1/2'
  119  'z+1/2, y, -x+1/2'
  120  '-z+1/2, -y, x+1/2'
  121  '-z+1/2, x, -y+1/2'
  122  'z+1/2, -x, y+1/2'
  123  '-z+1/2, -y, -x+1/2'
  124  'z+1/2, y, x+1/2'
  125  '-z+1/2, -x, y+1/2'
  126  'z+1/2, x, -y+1/2'
  127  '-z+1/2, y, x+1/2'
  128  'z+1/2, -y, -x+1/2'
  129  'y+1/2, z, x+1/2'
  130  '-y+1/2, -z, -x+1/2'
  131  'x+1/2, z, -y+1/2'
  132  '-x+1/2, -z, y+1/2'
  133  '-y+1/2, z, -x+1/2'
  134  'y+1/2, -z, x+1/2'
  135  '-x+1/2, z, y+1/2'
  136  'x+1/2, -z, -y+1/2'
  137  '-y+1/2, -z, x+1/2'
  138  'y+1/2, z, -x+1/2'
  139  '-x+1/2, -z, -y+1/2'
  140  'x+1/2, z, y+1/2'
  141  'y+1/2, -z, -x+1/2'
  142  '-y+1/2, z, x+1/2'
  143  'x+1/2, -z, y+1/2'
  144  '-x+1/2, z, -y+1/2'
  145  'x, y+1/2, z+1/2'
  146  '-x, -y+1/2, -z+1/2'
  147  '-y, x+1/2, z+1/2'
  148  'y, -x+1/2, -z+1/2'
  149  '-x, -y+1/2, z+1/2'
  150  'x, y+1/2, -z+1/2'
  151  'y, -x+1/2, z+1/2'
  152  '-y, x+1/2, -z+1/2'
  153  'x, -y+1/2, -z+1/2'
  154  '-x, y+1/2, z+1/2'
  155  '-y, -x+1/2, -z+1/2'
  156  'y, x+1/2, z+1/2'
  157  '-x, y+1/2, -z+1/2'
  158  'x, -y+1/2, z+1/2'
  159  'y, x+1/2, -z+1/2'
  160  '-y, -x+1/2, z+1/2'
  161  'z, x+1/2, y+1/2'
  162  '-z, -x+1/2, -y+1/2'
  163  'z, -y+1/2, x+1/2'
  164  '-z, y+1/2, -x+1/2'
  165  'z, -x+1/2, -y+1/2'
  166  '-z, x+1/2, y+1/2'
  167  'z, y+1/2, -x+1/2'
  168  '-z, -y+1/2, x+1/2'
  169  '-z, x+1/2, -y+1/2'
  170  'z, -x+1/2, y+1/2'
  171  '-z, -y+1/2, -x+1/2'
  172  'z, y+1/2, x+1/2'
  173  '-z, -x+1/2, y+1/2'
  174  'z, x+1/2, -y+1/2'
  175  '-z, y+1/2, x+1/2'
  176  'z, -y+1/2, -x+1/2'
  177  'y, z+1/2, x+1/2'
  178  '-y, -z+1/2, -x+1/2'
  179  'x, z+1/2, -y+1/2'
  180  '-x, -z+1/2, y+1/2'
  181  '-y, z+1/2, -x+1/2'
  182  'y, -z+1/2, x+1/2'
  183  '-x, z+1/2, y+1/2'
  184  'x, -z+1/2, -y+1/2'
  185  '-y, -z+1/2, x+1/2'
  186  'y, z+1/2, -x+1/2'
  187  '-x, -z+1/2, -y+1/2'
  188  'x, z+1/2, y+1/2'
  189  'y, -z+1/2, -x+1/2'
  190  '-y, z+1/2, x+1/2'
  191  'x, -z+1/2, y+1/2'
  192  '-x, z+1/2, -y+1/2'
loop_
 _atom_site_type_symbol
 _atom_site_label
 _atom_site_symmetry_multiplicity
 _atom_site_fract_x
 _atom_site_fract_y
 _atom_site_fract_z
 _atom_site_occupancy
  Au  Au0  4  0.00000000  0.00000000  0.00000000  1
# generated using pymatgen
data_ID_59
_symmetry_space_group_name_H-M   P4/mbm
_cell_length_a   5.31875812
_cell_length_b   5.31875812
_cell_length_c   2.71812089
_cell_angle_alpha   90.00000000
_cell_angle_beta   90.00000000
_cell_angle_gamma   90.00000000
_symmetry_Int_Tables_number   127
_chemical_formula_structural   Au
_cell_volume   76.89343295
_cell_formula_units_Z   4
loop_
 _symmetry_equiv_pos_site_id
 _symmetry_equiv_pos_as_xyz
  1  'x, y, z'
  2  '-x, -y, -z'
  3  '-y, x, z'
  4  'y, -x, -z'
  5  '-x, -y, z'
  6  'x, y, -z'
  7  'y, -x, z'
  8  '-y, x, -z'
  9  'x+1/2, -y+1/2, -z'
  10  '-x+1/2, y+1/2, z'
  11  '-y+1/2, -x+1/2, -z'
  12  'y+1/2, x+1/2, z'
  13  '-x+1/2, y+1/2, -z'
  14  'x+1/2, -y+1/2, z'
  15  'y+1/2, x+1/2, -z'
  16  '-y+1/2, -x+1/2, z'
loop_
 _atom_site_type_symbol
 _atom_site_label
 _atom_site_symmetry_multiplicity
 _atom_site_fract_x
 _atom_site_fract_y
 _atom_site_fract_z
 _atom_site_occupancy
  Au  Au0  4  0.18455362  0.68455362  0.50000000  1
# generated using pymatgen
data_ID_60
_symmetry_space_group_name_H-M   Pmmm
_cell_length_a   5.23777795
_cell_length_b   5.50867453
_cell_length_c   9.09653971
_cell_angle_alpha   90.00000000
_cell_angle_beta   90.00000000
_cell_angle_gamma   90.00000000
_symmetry_Int_Tables_number   47
_chemical_formula_structural   Au
_cell_volume   262.46440657
_cell_formula_units_Z   8
loop_
 _symmetry_equiv_pos_site_id
 _symmetry_equiv_pos_as_xyz
  1  'x, y, z'
  2  '-x, -y, -z'
  3  '-x, -y, z'
  4  'x, y, -z'
  5  'x, -y, -z'
  6  '-x, y, z'
  7  '-x, y, -z'
  8  'x, -y, z'
loop_
 _atom_site_type_symbol
 _atom_site_label
 _atom_site_symmetry_multiplicity
 _atom_site_fract_x
 _atom_site_fract_y
 _atom_site_fract_z
 _atom_site_occupancy
  Au  Au0  4  0.25072148  0.25118353  0.50000000  1
  Au  Au1  2  0.00000000  0.00000000  0.28641150  1
  Au  Au2  1  0.00000000  0.00000000  0.00000000  1
  Au  Au3  1  0.50000000  0.00000000  0.00000000  1
# generated using pymatgen
data_ID_61
_symmetry_space_group_name_H-M   P6_3/mcm
_cell_length_a   4.84760569
_cell_length_b   4.84760569
_cell_length_c   8.69043981
_cell_angle_alpha   90.00000000
_cell_angle_beta   90.00000000
_cell_angle_gamma   120.00000000
_symmetry_Int_Tables_number   193
_chemical_formula_structural   Au
_cell_volume   176.85891675
_cell_formula_units_Z   8
loop_
 _symmetry_equiv_pos_site_id
 _symmetry_equiv_pos_as_xyz
  1  'x, y, z'
  2  '-x, -y, -z'
  3  'x-y, x, z+1/2'
  4  '-x+y, -x, -z+1/2'
  5  '-y, x-y, z'
  6  'y, -x+y, -z'
  7  '-x, -y, z+1/2'
  8  'x, y, -z+1/2'
  9  '-x+y, -x, z'
  10  'x-y, x, -z'
  11  'y, -x+y, z+1/2'
  12  '-y, x-y, -z+1/2'
  13  '-y, -x, -z'
  14  'y, x, z'
  15  '-x, -x+y, -z+1/2'
  16  'x, x-y, z+1/2'
  17  '-x+y, y, -z'
  18  'x-y, -y, z'
  19  'y, x, -z+1/2'
  20  '-y, -x, z+1/2'
  21  'x, x-y, -z'
  22  '-x, -x+y, z'
  23  'x-y, -y, -z+1/2'
  24  '-x+y, y, z+1/2'
loop_
 _atom_site_type_symbol
 _atom_site_label
 _atom_site_symmetry_multiplicity
 _atom_site_fract_x
 _atom_site_fract_y
 _atom_site_fract_z
 _atom_site_occupancy
  Au  Au0  6  0.00000000  0.34075868  0.75000000  1
  Au  Au1  2  0.00000000  0.00000000  0.00000000  1
# generated using pymatgen
data_ID_62
_symmetry_space_group_name_H-M   Pm-3m
_cell_length_a   2.70714714
_cell_length_b   2.70714714
_cell_length_c   2.70714714
_cell_angle_alpha   90.00000000
_cell_angle_beta   90.00000000
_cell_angle_gamma   90.00000000
_symmetry_Int_Tables_number   221
_chemical_formula_structural   Au
_cell_volume   19.83972209
_cell_formula_units_Z   1
loop_
 _symmetry_equiv_pos_site_id
 _symmetry_equiv_pos_as_xyz
  1  'x, y, z'
  2  '-x, -y, -z'
  3  '-y, x, z'
  4  'y, -x, -z'
  5  '-x, -y, z'
  6  'x, y, -z'
  7  'y, -x, z'
  8  '-y, x, -z'
  9  'x, -y, -z'
  10  '-x, y, z'
  11  '-y, -x, -z'
  12  'y, x, z'
  13  '-x, y, -z'
  14  'x, -y, z'
  15  'y, x, -z'
  16  '-y, -x, z'
  17  'z, x, y'
  18  '-z, -x, -y'
  19  'z, -y, x'
  20  '-z, y, -x'
  21  'z, -x, -y'
  22  '-z, x, y'
  23  'z, y, -x'
  24  '-z, -y, x'
  25  '-z, x, -y'
  26  'z, -x, y'
  27  '-z, -y, -x'
  28  'z, y, x'
  29  '-z, -x, y'
  30  'z, x, -y'
  31  '-z, y, x'
  32  'z, -y, -x'
  33  'y, z, x'
  34  '-y, -z, -x'
  35  'x, z, -y'
  36  '-x, -z, y'
  37  '-y, z, -x'
  38  'y, -z, x'
  39  '-x, z, y'
  40  'x, -z, -y'
  41  '-y, -z, x'
  42  'y, z, -x'
  43  '-x, -z, -y'
  44  'x, z, y'
  45  'y, -z, -x'
  46  '-y, z, x'
  47  'x, -z, y'
  48  '-x, z, -y'
loop_
 _atom_site_type_symbol
 _atom_site_label
 _atom_site_symmetry_multiplicity
 _atom_site_fract_x
 _atom_site_fract_y
 _atom_site_fract_z
 _atom_site_occupancy
  Au  Au0  1  0.00000000  0.00000000  0.00000000  1
# generated using pymatgen
data_ID_63
_symmetry_space_group_name_H-M   Cmcm
_cell_length_a   2.86114759
_cell_length_b   4.97646193
_cell_length_c   4.68779734
_cell_angle_alpha   90.00000000
_cell_angle_beta   90.00000000
_cell_angle_gamma   90.00000000
_symmetry_Int_Tables_number   63
_chemical_formula_structural   Au
_cell_volume   66.74669652
_cell_formula_units_Z   4
loop_
 _symmetry_equiv_pos_site_id
 _symmetry_equiv_pos_as_xyz
  1  'x, y, z'
  2  '-x, -y, -z'
  3  '-x, -y, z+1/2'
  4  'x, y, -z+1/2'
  5  'x, -y, -z'
  6  '-x, y, z'
  7  '-x, y, -z+1/2'
  8  'x, -y, z+1/2'
  9  'x+1/2, y+1/2, z'
  10  '-x+1/2, -y+1/2, -z'
  11  '-x+1/2, -y+1/2, z+1/2'
  12  'x+1/2, y+1/2, -z+1/2'
  13  'x+1/2, -y+1/2, -z'
  14  '-x+1/2, y+1/2, z'
  15  '-x+1/2, y+1/2, -z+1/2'
  16  'x+1/2, -y+1/2, z+1/2'
loop_
 _atom_site_type_symbol
 _atom_site_label
 _atom_site_symmetry_multiplicity
 _atom_site_fract_x
 _atom_site_fract_y
 _atom_site_fract_z
 _atom_site_occupancy
  Au  Au0  4  0.00000000  0.16539564  0.25000000  1
# generated using pymatgen
data_ID_64
_symmetry_space_group_name_H-M   I4_1/a
_cell_length_a   5.73603864
_cell_length_b   5.73603864
_cell_length_c   8.11681813
_cell_angle_alpha   90.00000000
_cell_angle_beta   90.00000000
_cell_angle_gamma   90.00000000
_symmetry_Int_Tables_number   88
_chemical_formula_structural   Au
_cell_volume   267.06068065
_cell_formula_units_Z   16
loop_
 _symmetry_equiv_pos_site_id
 _symmetry_equiv_pos_as_xyz
  1  'x, y, z'
  2  '-y, x+1/2, z+1/4'
  3  '-x+1/2, -y+1/2, z+1/2'
  4  'y+1/2, -x, z+3/4'
  5  '-x, -y+1/2, -z+1/4'
  6  'y, -x, -z'
  7  'x+1/2, y, -z+3/4'
  8  '-y+1/2, x+1/2, -z+1/2'
  9  'x+1/2, y+1/2, z+1/2'
  10  '-y+1/2, x, z+3/4'
  11  '-x, -y, z'
  12  'y, -x+1/2, z+1/4'
  13  '-x+1/2, -y, -z+3/4'
  14  'y+1/2, -x+1/2, -z+1/2'
  15  'x, y+1/2, -z+1/4'
  16  '-y, x, -z'
loop_
 _atom_site_type_symbol
 _atom_site_label
 _atom_site_symmetry_multiplicity
 _atom_site_fract_x
 _atom_site_fract_y
 _atom_site_fract_z
 _atom_site_occupancy
  Au  Au0  16  0.00039314  0.24961247  0.87473196  1
# generated using pymatgen
data_ID_65
_symmetry_space_group_name_H-M   Fm-3m
_cell_length_a   4.05605926
_cell_length_b   4.05605926
_cell_length_c   4.05605926
_cell_angle_alpha   90.00000000
_cell_angle_beta   90.00000000
_cell_angle_gamma   90.00000000
_symmetry_Int_Tables_number   225
_chemical_formula_structural   Au
_cell_volume   66.72873256
_cell_formula_units_Z   4
loop_
 _symmetry_equiv_pos_site_id
 _symmetry_equiv_pos_as_xyz
  1  'x, y, z'
  2  '-x, -y, -z'
  3  '-y, x, z'
  4  'y, -x, -z'
  5  '-x, -y, z'
  6  'x, y, -z'
  7  'y, -x, z'
  8  '-y, x, -z'
  9  'x, -y, -z'
  10  '-x, y, z'
  11  '-y, -x, -z'
  12  'y, x, z'
  13  '-x, y, -z'
  14  'x, -y, z'
  15  'y, x, -z'
  16  '-y, -x, z'
  17  'z, x, y'
  18  '-z, -x, -y'
  19  'z, -y, x'
  20  '-z, y, -x'
  21  'z, -x, -y'
  22  '-z, x, y'
  23  'z, y, -x'
  24  '-z, -y, x'
  25  '-z, x, -y'
  26  'z, -x, y'
  27  '-z, -y, -x'
  28  'z, y, x'
  29  '-z, -x, y'
  30  'z, x, -y'
  31  '-z, y, x'
  32  'z, -y, -x'
  33  'y, z, x'
  34  '-y, -z, -x'
  35  'x, z, -y'
  36  '-x, -z, y'
  37  '-y, z, -x'
  38  'y, -z, x'
  39  '-x, z, y'
  40  'x, -z, -y'
  41  '-y, -z, x'
  42  'y, z, -x'
  43  '-x, -z, -y'
  44  'x, z, y'
  45  'y, -z, -x'
  46  '-y, z, x'
  47  'x, -z, y'
  48  '-x, z, -y'
  49  'x+1/2, y+1/2, z'
  50  '-x+1/2, -y+1/2, -z'
  51  '-y+1/2, x+1/2, z'
  52  'y+1/2, -x+1/2, -z'
  53  '-x+1/2, -y+1/2, z'
  54  'x+1/2, y+1/2, -z'
  55  'y+1/2, -x+1/2, z'
  56  '-y+1/2, x+1/2, -z'
  57  'x+1/2, -y+1/2, -z'
  58  '-x+1/2, y+1/2, z'
  59  '-y+1/2, -x+1/2, -z'
  60  'y+1/2, x+1/2, z'
  61  '-x+1/2, y+1/2, -z'
  62  'x+1/2, -y+1/2, z'
  63  'y+1/2, x+1/2, -z'
  64  '-y+1/2, -x+1/2, z'
  65  'z+1/2, x+1/2, y'
  66  '-z+1/2, -x+1/2, -y'
  67  'z+1/2, -y+1/2, x'
  68  '-z+1/2, y+1/2, -x'
  69  'z+1/2, -x+1/2, -y'
  70  '-z+1/2, x+1/2, y'
  71  'z+1/2, y+1/2, -x'
  72  '-z+1/2, -y+1/2, x'
  73  '-z+1/2, x+1/2, -y'
  74  'z+1/2, -x+1/2, y'
  75  '-z+1/2, -y+1/2, -x'
  76  'z+1/2, y+1/2, x'
  77  '-z+1/2, -x+1/2, y'
  78  'z+1/2, x+1/2, -y'
  79  '-z+1/2, y+1/2, x'
  80  'z+1/2, -y+1/2, -x'
  81  'y+1/2, z+1/2, x'
  82  '-y+1/2, -z+1/2, -x'
  83  'x+1/2, z+1/2, -y'
  84  '-x+1/2, -z+1/2, y'
  85  '-y+1/2, z+1/2, -x'
  86  'y+1/2, -z+1/2, x'
  87  '-x+1/2, z+1/2, y'
  88  'x+1/2, -z+1/2, -y'
  89  '-y+1/2, -z+1/2, x'
  90  'y+1/2, z+1/2, -x'
  91  '-x+1/2, -z+1/2, -y'
  92  'x+1/2, z+1/2, y'
  93  'y+1/2, -z+1/2, -x'
  94  '-y+1/2, z+1/2, x'
  95  'x+1/2, -z+1/2, y'
  96  '-x+1/2, z+1/2, -y'
  97  'x+1/2, y, z+1/2'
  98  '-x+1/2, -y, -z+1/2'
  99  '-y+1/2, x, z+1/2'
  100  'y+1/2, -x, -z+1/2'
  101  '-x+1/2, -y, z+1/2'
  102  'x+1/2, y, -z+1/2'
  103  'y+1/2, -x, z+1/2'
  104  '-y+1/2, x, -z+1/2'
  105  'x+1/2, -y, -z+1/2'
  106  '-x+1/2, y, z+1/2'
  107  '-y+1/2, -x, -z+1/2'
  108  'y+1/2, x, z+1/2'
  109  '-x+1/2, y, -z+1/2'
  110  'x+1/2, -y, z+1/2'
  111  'y+1/2, x, -z+1/2'
  112  '-y+1/2, -x, z+1/2'
  113  'z+1/2, x, y+1/2'
  114  '-z+1/2, -x, -y+1/2'
  115  'z+1/2, -y, x+1/2'
  116  '-z+1/2, y, -x+1/2'
  117  'z+1/2, -x, -y+1/2'
  118  '-z+1/2, x, y+1/2'
  119  'z+1/2, y, -x+1/2'
  120  '-z+1/2, -y, x+1/2'
  121  '-z+1/2, x, -y+1/2'
  122  'z+1/2, -x, y+1/2'
  123  '-z+1/2, -y, -x+1/2'
  124  'z+1/2, y, x+1/2'
  125  '-z+1/2, -x, y+1/2'
  126  'z+1/2, x, -y+1/2'
  127  '-z+1/2, y, x+1/2'
  128  'z+1/2, -y, -x+1/2'
  129  'y+1/2, z, x+1/2'
  130  '-y+1/2, -z, -x+1/2'
  131  'x+1/2, z, -y+1/2'
  132  '-x+1/2, -z, y+1/2'
  133  '-y+1/2, z, -x+1/2'
  134  'y+1/2, -z, x+1/2'
  135  '-x+1/2, z, y+1/2'
  136  'x+1/2, -z, -y+1/2'
  137  '-y+1/2, -z, x+1/2'
  138  'y+1/2, z, -x+1/2'
  139  '-x+1/2, -z, -y+1/2'
  140  'x+1/2, z, y+1/2'
  141  'y+1/2, -z, -x+1/2'
  142  '-y+1/2, z, x+1/2'
  143  'x+1/2, -z, y+1/2'
  144  '-x+1/2, z, -y+1/2'
  145  'x, y+1/2, z+1/2'
  146  '-x, -y+1/2, -z+1/2'
  147  '-y, x+1/2, z+1/2'
  148  'y, -x+1/2, -z+1/2'
  149  '-x, -y+1/2, z+1/2'
  150  'x, y+1/2, -z+1/2'
  151  'y, -x+1/2, z+1/2'
  152  '-y, x+1/2, -z+1/2'
  153  'x, -y+1/2, -z+1/2'
  154  '-x, y+1/2, z+1/2'
  155  '-y, -x+1/2, -z+1/2'
  156  'y, x+1/2, z+1/2'
  157  '-x, y+1/2, -z+1/2'
  158  'x, -y+1/2, z+1/2'
  159  'y, x+1/2, -z+1/2'
  160  '-y, -x+1/2, z+1/2'
  161  'z, x+1/2, y+1/2'
  162  '-z, -x+1/2, -y+1/2'
  163  'z, -y+1/2, x+1/2'
  164  '-z, y+1/2, -x+1/2'
  165  'z, -x+1/2, -y+1/2'
  166  '-z, x+1/2, y+1/2'
  167  'z, y+1/2, -x+1/2'
  168  '-z, -y+1/2, x+1/2'
  169  '-z, x+1/2, -y+1/2'
  170  'z, -x+1/2, y+1/2'
  171  '-z, -y+1/2, -x+1/2'
  172  'z, y+1/2, x+1/2'
  173  '-z, -x+1/2, y+1/2'
  174  'z, x+1/2, -y+1/2'
  175  '-z, y+1/2, x+1/2'
  176  'z, -y+1/2, -x+1/2'
  177  'y, z+1/2, x+1/2'
  178  '-y, -z+1/2, -x+1/2'
  179  'x, z+1/2, -y+1/2'
  180  '-x, -z+1/2, y+1/2'
  181  '-y, z+1/2, -x+1/2'
  182  'y, -z+1/2, x+1/2'
  183  '-x, z+1/2, y+1/2'
  184  'x, -z+1/2, -y+1/2'
  185  '-y, -z+1/2, x+1/2'
  186  'y, z+1/2, -x+1/2'
  187  '-x, -z+1/2, -y+1/2'
  188  'x, z+1/2, y+1/2'
  189  'y, -z+1/2, -x+1/2'
  190  '-y, z+1/2, x+1/2'
  191  'x, -z+1/2, y+1/2'
  192  '-x, z+1/2, -y+1/2'
loop_
 _atom_site_type_symbol
 _atom_site_label
 _atom_site_symmetry_multiplicity
 _atom_site_fract_x
 _atom_site_fract_y
 _atom_site_fract_z
 _atom_site_occupancy
  Au  Au0  4  0.00000000  0.00000000  0.50000000  1
# generated using pymatgen
data_ID_66
_symmetry_space_group_name_H-M   I-43d
_cell_length_a   6.45794589
_cell_length_b   6.45794589
_cell_length_c   6.45794589
_cell_angle_alpha   90.00000000
_cell_angle_beta   90.00000000
_cell_angle_gamma   90.00000000
_symmetry_Int_Tables_number   220
_chemical_formula_structural   Au
_cell_volume   269.32905367
_cell_formula_units_Z   16
loop_
 _symmetry_equiv_pos_site_id
 _symmetry_equiv_pos_as_xyz
  1  'x, y, z'
  2  'y+1/4, -x+3/4, -z+1/4'
  3  '-x, -y+1/2, z'
  4  '-y+3/4, x+3/4, -z+1/4'
  5  'x, -y, -z+1/2'
  6  'y+1/4, x+1/4, z+1/4'
  7  '-x, y+1/2, -z+1/2'
  8  '-y+3/4, -x+1/4, z+1/4'
  9  'z, x, y'
  10  '-z+1/4, y+1/4, -x+3/4'
  11  'z, -x, -y+1/2'
  12  '-z+1/4, -y+3/4, x+3/4'
  13  '-z+1/2, x, -y'
  14  'z+1/4, y+1/4, x+1/4'
  15  '-z+1/2, -x, y+1/2'
  16  'z+1/4, -y+3/4, -x+1/4'
  17  'y, z, x'
  18  '-x+3/4, -z+1/4, y+1/4'
  19  '-y+1/2, z, -x'
  20  'x+3/4, -z+1/4, -y+3/4'
  21  '-y, -z+1/2, x'
  22  'x+1/4, z+1/4, y+1/4'
  23  'y+1/2, -z+1/2, -x'
  24  '-x+1/4, z+1/4, -y+3/4'
  25  'x+1/2, y+1/2, z+1/2'
  26  'y+3/4, -x+1/4, -z+3/4'
  27  '-x+1/2, -y, z+1/2'
  28  '-y+1/4, x+1/4, -z+3/4'
  29  'x+1/2, -y+1/2, -z'
  30  'y+3/4, x+3/4, z+3/4'
  31  '-x+1/2, y, -z'
  32  '-y+1/4, -x+3/4, z+3/4'
  33  'z+1/2, x+1/2, y+1/2'
  34  '-z+3/4, y+3/4, -x+1/4'
  35  'z+1/2, -x+1/2, -y'
  36  '-z+3/4, -y+1/4, x+1/4'
  37  '-z, x+1/2, -y+1/2'
  38  'z+3/4, y+3/4, x+3/4'
  39  '-z, -x+1/2, y'
  40  'z+3/4, -y+1/4, -x+3/4'
  41  'y+1/2, z+1/2, x+1/2'
  42  '-x+1/4, -z+3/4, y+3/4'
  43  '-y, z+1/2, -x+1/2'
  44  'x+1/4, -z+3/4, -y+1/4'
  45  '-y+1/2, -z, x+1/2'
  46  'x+3/4, z+3/4, y+3/4'
  47  'y, -z, -x+1/2'
  48  '-x+3/4, z+3/4, -y+1/4'
loop_
 _atom_site_type_symbol
 _atom_site_label
 _atom_site_symmetry_multiplicity
 _atom_site_fract_x
 _atom_site_fract_y
 _atom_site_fract_z
 _atom_site_occupancy
  Au  Au0  16  0.02307014  0.47692986  0.52307014  1
# generated using pymatgen
data_ID_67
_symmetry_space_group_name_H-M   P6mm
_cell_length_a   5.27365309
_cell_length_b   5.27365309
_cell_length_c   7.73037058
_cell_angle_alpha   90.00000000
_cell_angle_beta   90.00000000
_cell_angle_gamma   120.00000000
_symmetry_Int_Tables_number   183
_chemical_formula_structural   Au
_cell_volume   186.18901817
_cell_formula_units_Z   8
loop_
 _symmetry_equiv_pos_site_id
 _symmetry_equiv_pos_as_xyz
  1  'x, y, z'
  2  'x-y, x, z'
  3  '-y, x-y, z'
  4  '-x, -y, z'
  5  '-x+y, -x, z'
  6  'y, -x+y, z'
  7  'y, x, z'
  8  'x, x-y, z'
  9  'x-y, -y, z'
  10  '-y, -x, z'
  11  '-x, -x+y, z'
  12  '-x+y, y, z'
loop_
 _atom_site_type_symbol
 _atom_site_label
 _atom_site_symmetry_multiplicity
 _atom_site_fract_x
 _atom_site_fract_y
 _atom_site_fract_z
 _atom_site_occupancy
  Au  Au0  3  0.00000000  0.50000000  0.69808423  1
  Au  Au1  2  0.33333333  0.66666667  0.39838772  1
  Au  Au2  1  0.00000000  0.00000000  0.19930596  1
  Au  Au3  1  0.00000000  0.00000000  0.52319853  1
  Au  Au4  1  0.00000000  0.00000000  0.86711661  1
# generated using pymatgen
data_ID_68
_symmetry_space_group_name_H-M   Fm-3m
_cell_length_a   4.05625498
_cell_length_b   4.05625498
_cell_length_c   4.05625498
_cell_angle_alpha   90.00000000
_cell_angle_beta   90.00000000
_cell_angle_gamma   90.00000000
_symmetry_Int_Tables_number   225
_chemical_formula_structural   Au
_cell_volume   66.73839248
_cell_formula_units_Z   4
loop_
 _symmetry_equiv_pos_site_id
 _symmetry_equiv_pos_as_xyz
  1  'x, y, z'
  2  '-x, -y, -z'
  3  '-y, x, z'
  4  'y, -x, -z'
  5  '-x, -y, z'
  6  'x, y, -z'
  7  'y, -x, z'
  8  '-y, x, -z'
  9  'x, -y, -z'
  10  '-x, y, z'
  11  '-y, -x, -z'
  12  'y, x, z'
  13  '-x, y, -z'
  14  'x, -y, z'
  15  'y, x, -z'
  16  '-y, -x, z'
  17  'z, x, y'
  18  '-z, -x, -y'
  19  'z, -y, x'
  20  '-z, y, -x'
  21  'z, -x, -y'
  22  '-z, x, y'
  23  'z, y, -x'
  24  '-z, -y, x'
  25  '-z, x, -y'
  26  'z, -x, y'
  27  '-z, -y, -x'
  28  'z, y, x'
  29  '-z, -x, y'
  30  'z, x, -y'
  31  '-z, y, x'
  32  'z, -y, -x'
  33  'y, z, x'
  34  '-y, -z, -x'
  35  'x, z, -y'
  36  '-x, -z, y'
  37  '-y, z, -x'
  38  'y, -z, x'
  39  '-x, z, y'
  40  'x, -z, -y'
  41  '-y, -z, x'
  42  'y, z, -x'
  43  '-x, -z, -y'
  44  'x, z, y'
  45  'y, -z, -x'
  46  '-y, z, x'
  47  'x, -z, y'
  48  '-x, z, -y'
  49  'x+1/2, y+1/2, z'
  50  '-x+1/2, -y+1/2, -z'
  51  '-y+1/2, x+1/2, z'
  52  'y+1/2, -x+1/2, -z'
  53  '-x+1/2, -y+1/2, z'
  54  'x+1/2, y+1/2, -z'
  55  'y+1/2, -x+1/2, z'
  56  '-y+1/2, x+1/2, -z'
  57  'x+1/2, -y+1/2, -z'
  58  '-x+1/2, y+1/2, z'
  59  '-y+1/2, -x+1/2, -z'
  60  'y+1/2, x+1/2, z'
  61  '-x+1/2, y+1/2, -z'
  62  'x+1/2, -y+1/2, z'
  63  'y+1/2, x+1/2, -z'
  64  '-y+1/2, -x+1/2, z'
  65  'z+1/2, x+1/2, y'
  66  '-z+1/2, -x+1/2, -y'
  67  'z+1/2, -y+1/2, x'
  68  '-z+1/2, y+1/2, -x'
  69  'z+1/2, -x+1/2, -y'
  70  '-z+1/2, x+1/2, y'
  71  'z+1/2, y+1/2, -x'
  72  '-z+1/2, -y+1/2, x'
  73  '-z+1/2, x+1/2, -y'
  74  'z+1/2, -x+1/2, y'
  75  '-z+1/2, -y+1/2, -x'
  76  'z+1/2, y+1/2, x'
  77  '-z+1/2, -x+1/2, y'
  78  'z+1/2, x+1/2, -y'
  79  '-z+1/2, y+1/2, x'
  80  'z+1/2, -y+1/2, -x'
  81  'y+1/2, z+1/2, x'
  82  '-y+1/2, -z+1/2, -x'
  83  'x+1/2, z+1/2, -y'
  84  '-x+1/2, -z+1/2, y'
  85  '-y+1/2, z+1/2, -x'
  86  'y+1/2, -z+1/2, x'
  87  '-x+1/2, z+1/2, y'
  88  'x+1/2, -z+1/2, -y'
  89  '-y+1/2, -z+1/2, x'
  90  'y+1/2, z+1/2, -x'
  91  '-x+1/2, -z+1/2, -y'
  92  'x+1/2, z+1/2, y'
  93  'y+1/2, -z+1/2, -x'
  94  '-y+1/2, z+1/2, x'
  95  'x+1/2, -z+1/2, y'
  96  '-x+1/2, z+1/2, -y'
  97  'x+1/2, y, z+1/2'
  98  '-x+1/2, -y, -z+1/2'
  99  '-y+1/2, x, z+1/2'
  100  'y+1/2, -x, -z+1/2'
  101  '-x+1/2, -y, z+1/2'
  102  'x+1/2, y, -z+1/2'
  103  'y+1/2, -x, z+1/2'
  104  '-y+1/2, x, -z+1/2'
  105  'x+1/2, -y, -z+1/2'
  106  '-x+1/2, y, z+1/2'
  107  '-y+1/2, -x, -z+1/2'
  108  'y+1/2, x, z+1/2'
  109  '-x+1/2, y, -z+1/2'
  110  'x+1/2, -y, z+1/2'
  111  'y+1/2, x, -z+1/2'
  112  '-y+1/2, -x, z+1/2'
  113  'z+1/2, x, y+1/2'
  114  '-z+1/2, -x, -y+1/2'
  115  'z+1/2, -y, x+1/2'
  116  '-z+1/2, y, -x+1/2'
  117  'z+1/2, -x, -y+1/2'
  118  '-z+1/2, x, y+1/2'
  119  'z+1/2, y, -x+1/2'
  120  '-z+1/2, -y, x+1/2'
  121  '-z+1/2, x, -y+1/2'
  122  'z+1/2, -x, y+1/2'
  123  '-z+1/2, -y, -x+1/2'
  124  'z+1/2, y, x+1/2'
  125  '-z+1/2, -x, y+1/2'
  126  'z+1/2, x, -y+1/2'
  127  '-z+1/2, y, x+1/2'
  128  'z+1/2, -y, -x+1/2'
  129  'y+1/2, z, x+1/2'
  130  '-y+1/2, -z, -x+1/2'
  131  'x+1/2, z, -y+1/2'
  132  '-x+1/2, -z, y+1/2'
  133  '-y+1/2, z, -x+1/2'
  134  'y+1/2, -z, x+1/2'
  135  '-x+1/2, z, y+1/2'
  136  'x+1/2, -z, -y+1/2'
  137  '-y+1/2, -z, x+1/2'
  138  'y+1/2, z, -x+1/2'
  139  '-x+1/2, -z, -y+1/2'
  140  'x+1/2, z, y+1/2'
  141  'y+1/2, -z, -x+1/2'
  142  '-y+1/2, z, x+1/2'
  143  'x+1/2, -z, y+1/2'
  144  '-x+1/2, z, -y+1/2'
  145  'x, y+1/2, z+1/2'
  146  '-x, -y+1/2, -z+1/2'
  147  '-y, x+1/2, z+1/2'
  148  'y, -x+1/2, -z+1/2'
  149  '-x, -y+1/2, z+1/2'
  150  'x, y+1/2, -z+1/2'
  151  'y, -x+1/2, z+1/2'
  152  '-y, x+1/2, -z+1/2'
  153  'x, -y+1/2, -z+1/2'
  154  '-x, y+1/2, z+1/2'
  155  '-y, -x+1/2, -z+1/2'
  156  'y, x+1/2, z+1/2'
  157  '-x, y+1/2, -z+1/2'
  158  'x, -y+1/2, z+1/2'
  159  'y, x+1/2, -z+1/2'
  160  '-y, -x+1/2, z+1/2'
  161  'z, x+1/2, y+1/2'
  162  '-z, -x+1/2, -y+1/2'
  163  'z, -y+1/2, x+1/2'
  164  '-z, y+1/2, -x+1/2'
  165  'z, -x+1/2, -y+1/2'
  166  '-z, x+1/2, y+1/2'
  167  'z, y+1/2, -x+1/2'
  168  '-z, -y+1/2, x+1/2'
  169  '-z, x+1/2, -y+1/2'
  170  'z, -x+1/2, y+1/2'
  171  '-z, -y+1/2, -x+1/2'
  172  'z, y+1/2, x+1/2'
  173  '-z, -x+1/2, y+1/2'
  174  'z, x+1/2, -y+1/2'
  175  '-z, y+1/2, x+1/2'
  176  'z, -y+1/2, -x+1/2'
  177  'y, z+1/2, x+1/2'
  178  '-y, -z+1/2, -x+1/2'
  179  'x, z+1/2, -y+1/2'
  180  '-x, -z+1/2, y+1/2'
  181  '-y, z+1/2, -x+1/2'
  182  'y, -z+1/2, x+1/2'
  183  '-x, z+1/2, y+1/2'
  184  'x, -z+1/2, -y+1/2'
  185  '-y, -z+1/2, x+1/2'
  186  'y, z+1/2, -x+1/2'
  187  '-x, -z+1/2, -y+1/2'
  188  'x, z+1/2, y+1/2'
  189  'y, -z+1/2, -x+1/2'
  190  '-y, z+1/2, x+1/2'
  191  'x, -z+1/2, y+1/2'
  192  '-x, z+1/2, -y+1/2'
loop_
 _atom_site_type_symbol
 _atom_site_label
 _atom_site_symmetry_multiplicity
 _atom_site_fract_x
 _atom_site_fract_y
 _atom_site_fract_z
 _atom_site_occupancy
  Au  Au0  4  0.00000000  0.00000000  0.00000000  1
# generated using pymatgen
data_ID_69
_symmetry_space_group_name_H-M   P4/mmm
_cell_length_a   6.46023386
_cell_length_b   6.46023386
_cell_length_c   2.67008257
_cell_angle_alpha   90.00000000
_cell_angle_beta   90.00000000
_cell_angle_gamma   90.00000000
_symmetry_Int_Tables_number   123
_chemical_formula_structural   Au
_cell_volume   111.43488557
_cell_formula_units_Z   4
loop_
 _symmetry_equiv_pos_site_id
 _symmetry_equiv_pos_as_xyz
  1  'x, y, z'
  2  '-x, -y, -z'
  3  '-y, x, z'
  4  'y, -x, -z'
  5  '-x, -y, z'
  6  'x, y, -z'
  7  'y, -x, z'
  8  '-y, x, -z'
  9  'x, -y, -z'
  10  '-x, y, z'
  11  '-y, -x, -z'
  12  'y, x, z'
  13  '-x, y, -z'
  14  'x, -y, z'
  15  'y, x, -z'
  16  '-y, -x, z'
loop_
 _atom_site_type_symbol
 _atom_site_label
 _atom_site_symmetry_multiplicity
 _atom_site_fract_x
 _atom_site_fract_y
 _atom_site_fract_z
 _atom_site_occupancy
  Au  Au0  4  0.00000000  0.29191324  0.50000000  1
# generated using pymatgen
data_ID_70
_symmetry_space_group_name_H-M   R-3c
_cell_length_a   7.61636098
_cell_length_b   7.61636098
_cell_length_c   8.27305802
_cell_angle_alpha   90.00000000
_cell_angle_beta   90.00000000
_cell_angle_gamma   120.00000000
_symmetry_Int_Tables_number   167
_chemical_formula_structural   Au
_cell_volume   415.61550502
_cell_formula_units_Z   24
loop_
 _symmetry_equiv_pos_site_id
 _symmetry_equiv_pos_as_xyz
  1  'x, y, z'
  2  '-x, -y, -z'
  3  '-y, x-y, z'
  4  'y, -x+y, -z'
  5  '-x+y, -x, z'
  6  'x-y, x, -z'
  7  'y, x, -z+1/2'
  8  '-y, -x, z+1/2'
  9  'x-y, -y, -z+1/2'
  10  '-x+y, y, z+1/2'
  11  '-x, -x+y, -z+1/2'
  12  'x, x-y, z+1/2'
  13  'x+2/3, y+1/3, z+1/3'
  14  '-x+2/3, -y+1/3, -z+1/3'
  15  '-y+2/3, x-y+1/3, z+1/3'
  16  'y+2/3, -x+y+1/3, -z+1/3'
  17  '-x+y+2/3, -x+1/3, z+1/3'
  18  'x-y+2/3, x+1/3, -z+1/3'
  19  'y+2/3, x+1/3, -z+5/6'
  20  '-y+2/3, -x+1/3, z+5/6'
  21  'x-y+2/3, -y+1/3, -z+5/6'
  22  '-x+y+2/3, y+1/3, z+5/6'
  23  '-x+2/3, -x+y+1/3, -z+5/6'
  24  'x+2/3, x-y+1/3, z+5/6'
  25  'x+1/3, y+2/3, z+2/3'
  26  '-x+1/3, -y+2/3, -z+2/3'
  27  '-y+1/3, x-y+2/3, z+2/3'
  28  'y+1/3, -x+y+2/3, -z+2/3'
  29  '-x+y+1/3, -x+2/3, z+2/3'
  30  'x-y+1/3, x+2/3, -z+2/3'
  31  'y+1/3, x+2/3, -z+1/6'
  32  '-y+1/3, -x+2/3, z+1/6'
  33  'x-y+1/3, -y+2/3, -z+1/6'
  34  '-x+y+1/3, y+2/3, z+1/6'
  35  '-x+1/3, -x+y+2/3, -z+1/6'
  36  'x+1/3, x-y+2/3, z+1/6'
loop_
 _atom_site_type_symbol
 _atom_site_label
 _atom_site_symmetry_multiplicity
 _atom_site_fract_x
 _atom_site_fract_y
 _atom_site_fract_z
 _atom_site_occupancy
  Au  Au0  18  0.00000000  0.28416684  0.25000000  1
  Au  Au1  6  0.00000000  0.00000000  0.00000000  1
# generated using pymatgen
data_ID_71
_symmetry_space_group_name_H-M   I4/mmm
_cell_length_a   3.32530708
_cell_length_b   3.32530708
_cell_length_c   3.04410611
_cell_angle_alpha   90.00000000
_cell_angle_beta   90.00000000
_cell_angle_gamma   90.00000000
_symmetry_Int_Tables_number   139
_chemical_formula_structural   Au
_cell_volume   33.66071216
_cell_formula_units_Z   2
loop_
 _symmetry_equiv_pos_site_id
 _symmetry_equiv_pos_as_xyz
  1  'x, y, z'
  2  '-x, -y, -z'
  3  '-y, x, z'
  4  'y, -x, -z'
  5  '-x, -y, z'
  6  'x, y, -z'
  7  'y, -x, z'
  8  '-y, x, -z'
  9  'x, -y, -z'
  10  '-x, y, z'
  11  '-y, -x, -z'
  12  'y, x, z'
  13  '-x, y, -z'
  14  'x, -y, z'
  15  'y, x, -z'
  16  '-y, -x, z'
  17  'x+1/2, y+1/2, z+1/2'
  18  '-x+1/2, -y+1/2, -z+1/2'
  19  '-y+1/2, x+1/2, z+1/2'
  20  'y+1/2, -x+1/2, -z+1/2'
  21  '-x+1/2, -y+1/2, z+1/2'
  22  'x+1/2, y+1/2, -z+1/2'
  23  'y+1/2, -x+1/2, z+1/2'
  24  '-y+1/2, x+1/2, -z+1/2'
  25  'x+1/2, -y+1/2, -z+1/2'
  26  '-x+1/2, y+1/2, z+1/2'
  27  '-y+1/2, -x+1/2, -z+1/2'
  28  'y+1/2, x+1/2, z+1/2'
  29  '-x+1/2, y+1/2, -z+1/2'
  30  'x+1/2, -y+1/2, z+1/2'
  31  'y+1/2, x+1/2, -z+1/2'
  32  '-y+1/2, -x+1/2, z+1/2'
loop_
 _atom_site_type_symbol
 _atom_site_label
 _atom_site_symmetry_multiplicity
 _atom_site_fract_x
 _atom_site_fract_y
 _atom_site_fract_z
 _atom_site_occupancy
  Au  Au0  2  0.00000000  0.00000000  0.50000000  1
# generated using pymatgen
data_ID_72
_symmetry_space_group_name_H-M   I4/mmm
_cell_length_a   3.34768300
_cell_length_b   3.34768300
_cell_length_c   3.00620938
_cell_angle_alpha   90.00000000
_cell_angle_beta   90.00000000
_cell_angle_gamma   90.00000000
_symmetry_Int_Tables_number   139
_chemical_formula_structural   Au
_cell_volume   33.69053280
_cell_formula_units_Z   2
loop_
 _symmetry_equiv_pos_site_id
 _symmetry_equiv_pos_as_xyz
  1  'x, y, z'
  2  '-x, -y, -z'
  3  '-y, x, z'
  4  'y, -x, -z'
  5  '-x, -y, z'
  6  'x, y, -z'
  7  'y, -x, z'
  8  '-y, x, -z'
  9  'x, -y, -z'
  10  '-x, y, z'
  11  '-y, -x, -z'
  12  'y, x, z'
  13  '-x, y, -z'
  14  'x, -y, z'
  15  'y, x, -z'
  16  '-y, -x, z'
  17  'x+1/2, y+1/2, z+1/2'
  18  '-x+1/2, -y+1/2, -z+1/2'
  19  '-y+1/2, x+1/2, z+1/2'
  20  'y+1/2, -x+1/2, -z+1/2'
  21  '-x+1/2, -y+1/2, z+1/2'
  22  'x+1/2, y+1/2, -z+1/2'
  23  'y+1/2, -x+1/2, z+1/2'
  24  '-y+1/2, x+1/2, -z+1/2'
  25  'x+1/2, -y+1/2, -z+1/2'
  26  '-x+1/2, y+1/2, z+1/2'
  27  '-y+1/2, -x+1/2, -z+1/2'
  28  'y+1/2, x+1/2, z+1/2'
  29  '-x+1/2, y+1/2, -z+1/2'
  30  'x+1/2, -y+1/2, z+1/2'
  31  'y+1/2, x+1/2, -z+1/2'
  32  '-y+1/2, -x+1/2, z+1/2'
loop_
 _atom_site_type_symbol
 _atom_site_label
 _atom_site_symmetry_multiplicity
 _atom_site_fract_x
 _atom_site_fract_y
 _atom_site_fract_z
 _atom_site_occupancy
  Au  Au0  2  0.00000000  0.00000000  0.50000000  1
# generated using pymatgen
data_ID_73
_symmetry_space_group_name_H-M   Pn-3m
_cell_length_a   6.75035776
_cell_length_b   6.75035776
_cell_length_c   6.75035776
_cell_angle_alpha   90.00000000
_cell_angle_beta   90.00000000
_cell_angle_gamma   90.00000000
_symmetry_Int_Tables_number   224
_chemical_formula_structural   Au
_cell_volume   307.59577918
_cell_formula_units_Z   8
loop_
 _symmetry_equiv_pos_site_id
 _symmetry_equiv_pos_as_xyz
  1  'x, y, z'
  2  '-y+1/2, x+1/2, z+1/2'
  3  '-x, -y, z'
  4  'y+1/2, -x+1/2, z+1/2'
  5  'x, -y, -z'
  6  '-y+1/2, -x+1/2, -z+1/2'
  7  '-x, y, -z'
  8  'y+1/2, x+1/2, -z+1/2'
  9  'z, x, y'
  10  'z+1/2, -y+1/2, x+1/2'
  11  'z, -x, -y'
  12  'z+1/2, y+1/2, -x+1/2'
  13  '-z, x, -y'
  14  '-z+1/2, -y+1/2, -x+1/2'
  15  '-z, -x, y'
  16  '-z+1/2, y+1/2, x+1/2'
  17  'y, z, x'
  18  'x+1/2, z+1/2, -y+1/2'
  19  '-y, z, -x'
  20  '-x+1/2, z+1/2, y+1/2'
  21  '-y, -z, x'
  22  '-x+1/2, -z+1/2, -y+1/2'
  23  'y, -z, -x'
  24  'x+1/2, -z+1/2, y+1/2'
  25  '-x+1/2, -y+1/2, -z+1/2'
  26  'y, -x, -z'
  27  'x+1/2, y+1/2, -z+1/2'
  28  '-y, x, -z'
  29  '-x+1/2, y+1/2, z+1/2'
  30  'y, x, z'
  31  'x+1/2, -y+1/2, z+1/2'
  32  '-y, -x, z'
  33  '-z+1/2, -x+1/2, -y+1/2'
  34  '-z, y, -x'
  35  '-z+1/2, x+1/2, y+1/2'
  36  '-z, -y, x'
  37  'z+1/2, -x+1/2, y+1/2'
  38  'z, y, x'
  39  'z+1/2, x+1/2, -y+1/2'
  40  'z, -y, -x'
  41  '-y+1/2, -z+1/2, -x+1/2'
  42  '-x, -z, y'
  43  'y+1/2, -z+1/2, x+1/2'
  44  'x, -z, -y'
  45  'y+1/2, z+1/2, -x+1/2'
  46  'x, z, y'
  47  '-y+1/2, z+1/2, x+1/2'
  48  '-x, z, -y'
loop_
 _atom_site_type_symbol
 _atom_site_label
 _atom_site_symmetry_multiplicity
 _atom_site_fract_x
 _atom_site_fract_y
 _atom_site_fract_z
 _atom_site_occupancy
  Au  Au0  8  0.13803296  0.13803296  0.13803296  1
# generated using pymatgen
data_ID_74
_symmetry_space_group_name_H-M   P-62m
_cell_length_a   7.72441709
_cell_length_b   7.72441709
_cell_length_c   2.82030012
_cell_angle_alpha   90.00000000
_cell_angle_beta   90.00000000
_cell_angle_gamma   120.00000000
_symmetry_Int_Tables_number   189
_chemical_formula_structural   Au
_cell_volume   145.73282701
_cell_formula_units_Z   8
loop_
 _symmetry_equiv_pos_site_id
 _symmetry_equiv_pos_as_xyz
  1  'x, y, z'
  2  '-x+y, -x, -z'
  3  '-y, x-y, z'
  4  'x, y, -z'
  5  '-x+y, -x, z'
  6  '-y, x-y, -z'
  7  'y, x, z'
  8  '-x, -x+y, -z'
  9  'x-y, -y, z'
  10  'y, x, -z'
  11  '-x, -x+y, z'
  12  'x-y, -y, -z'
loop_
 _atom_site_type_symbol
 _atom_site_label
 _atom_site_symmetry_multiplicity
 _atom_site_fract_x
 _atom_site_fract_y
 _atom_site_fract_z
 _atom_site_occupancy
  Au  Au0  3  0.00000000  0.21932640  0.50000000  1
  Au  Au1  3  0.00000000  0.59378367  0.50000000  1
  Au  Au2  2  0.33333333  0.66666667  0.00000000  1
# generated using pymatgen
data_ID_75
_symmetry_space_group_name_H-M   P2/m
_cell_length_a   5.38451113
_cell_length_b   5.52103994
_cell_length_c   6.37926102
_cell_angle_alpha   90.00000000
_cell_angle_beta   102.81018364
_cell_angle_gamma   90.00000000
_symmetry_Int_Tables_number   10
_chemical_formula_structural   Au
_cell_volume   184.92308667
_cell_formula_units_Z   8
loop_
 _symmetry_equiv_pos_site_id
 _symmetry_equiv_pos_as_xyz
  1  'x, y, z'
  2  '-x, -y, -z'
  3  '-x, y, -z'
  4  'x, -y, z'
loop_
 _atom_site_type_symbol
 _atom_site_label
 _atom_site_symmetry_multiplicity
 _atom_site_fract_x
 _atom_site_fract_y
 _atom_site_fract_z
 _atom_site_occupancy
  Au  Au0  4  0.17819610  0.25315659  0.68561235  1
  Au  Au1  1  0.00000000  0.00000000  0.00000000  1
  Au  Au2  1  0.00000000  0.50000000  0.00000000  1
  Au  Au3  1  0.50000000  0.00000000  0.00000000  1
  Au  Au4  1  0.50000000  0.50000000  0.50000000  1
# generated using pymatgen
data_ID_76
_symmetry_space_group_name_H-M   Fm-3m
_cell_length_a   4.05610561
_cell_length_b   4.05610561
_cell_length_c   4.05610561
_cell_angle_alpha   90.00000000
_cell_angle_beta   90.00000000
_cell_angle_gamma   90.00000000
_symmetry_Int_Tables_number   225
_chemical_formula_structural   Au
_cell_volume   66.73101986
_cell_formula_units_Z   4
loop_
 _symmetry_equiv_pos_site_id
 _symmetry_equiv_pos_as_xyz
  1  'x, y, z'
  2  '-x, -y, -z'
  3  '-y, x, z'
  4  'y, -x, -z'
  5  '-x, -y, z'
  6  'x, y, -z'
  7  'y, -x, z'
  8  '-y, x, -z'
  9  'x, -y, -z'
  10  '-x, y, z'
  11  '-y, -x, -z'
  12  'y, x, z'
  13  '-x, y, -z'
  14  'x, -y, z'
  15  'y, x, -z'
  16  '-y, -x, z'
  17  'z, x, y'
  18  '-z, -x, -y'
  19  'z, -y, x'
  20  '-z, y, -x'
  21  'z, -x, -y'
  22  '-z, x, y'
  23  'z, y, -x'
  24  '-z, -y, x'
  25  '-z, x, -y'
  26  'z, -x, y'
  27  '-z, -y, -x'
  28  'z, y, x'
  29  '-z, -x, y'
  30  'z, x, -y'
  31  '-z, y, x'
  32  'z, -y, -x'
  33  'y, z, x'
  34  '-y, -z, -x'
  35  'x, z, -y'
  36  '-x, -z, y'
  37  '-y, z, -x'
  38  'y, -z, x'
  39  '-x, z, y'
  40  'x, -z, -y'
  41  '-y, -z, x'
  42  'y, z, -x'
  43  '-x, -z, -y'
  44  'x, z, y'
  45  'y, -z, -x'
  46  '-y, z, x'
  47  'x, -z, y'
  48  '-x, z, -y'
  49  'x+1/2, y+1/2, z'
  50  '-x+1/2, -y+1/2, -z'
  51  '-y+1/2, x+1/2, z'
  52  'y+1/2, -x+1/2, -z'
  53  '-x+1/2, -y+1/2, z'
  54  'x+1/2, y+1/2, -z'
  55  'y+1/2, -x+1/2, z'
  56  '-y+1/2, x+1/2, -z'
  57  'x+1/2, -y+1/2, -z'
  58  '-x+1/2, y+1/2, z'
  59  '-y+1/2, -x+1/2, -z'
  60  'y+1/2, x+1/2, z'
  61  '-x+1/2, y+1/2, -z'
  62  'x+1/2, -y+1/2, z'
  63  'y+1/2, x+1/2, -z'
  64  '-y+1/2, -x+1/2, z'
  65  'z+1/2, x+1/2, y'
  66  '-z+1/2, -x+1/2, -y'
  67  'z+1/2, -y+1/2, x'
  68  '-z+1/2, y+1/2, -x'
  69  'z+1/2, -x+1/2, -y'
  70  '-z+1/2, x+1/2, y'
  71  'z+1/2, y+1/2, -x'
  72  '-z+1/2, -y+1/2, x'
  73  '-z+1/2, x+1/2, -y'
  74  'z+1/2, -x+1/2, y'
  75  '-z+1/2, -y+1/2, -x'
  76  'z+1/2, y+1/2, x'
  77  '-z+1/2, -x+1/2, y'
  78  'z+1/2, x+1/2, -y'
  79  '-z+1/2, y+1/2, x'
  80  'z+1/2, -y+1/2, -x'
  81  'y+1/2, z+1/2, x'
  82  '-y+1/2, -z+1/2, -x'
  83  'x+1/2, z+1/2, -y'
  84  '-x+1/2, -z+1/2, y'
  85  '-y+1/2, z+1/2, -x'
  86  'y+1/2, -z+1/2, x'
  87  '-x+1/2, z+1/2, y'
  88  'x+1/2, -z+1/2, -y'
  89  '-y+1/2, -z+1/2, x'
  90  'y+1/2, z+1/2, -x'
  91  '-x+1/2, -z+1/2, -y'
  92  'x+1/2, z+1/2, y'
  93  'y+1/2, -z+1/2, -x'
  94  '-y+1/2, z+1/2, x'
  95  'x+1/2, -z+1/2, y'
  96  '-x+1/2, z+1/2, -y'
  97  'x+1/2, y, z+1/2'
  98  '-x+1/2, -y, -z+1/2'
  99  '-y+1/2, x, z+1/2'
  100  'y+1/2, -x, -z+1/2'
  101  '-x+1/2, -y, z+1/2'
  102  'x+1/2, y, -z+1/2'
  103  'y+1/2, -x, z+1/2'
  104  '-y+1/2, x, -z+1/2'
  105  'x+1/2, -y, -z+1/2'
  106  '-x+1/2, y, z+1/2'
  107  '-y+1/2, -x, -z+1/2'
  108  'y+1/2, x, z+1/2'
  109  '-x+1/2, y, -z+1/2'
  110  'x+1/2, -y, z+1/2'
  111  'y+1/2, x, -z+1/2'
  112  '-y+1/2, -x, z+1/2'
  113  'z+1/2, x, y+1/2'
  114  '-z+1/2, -x, -y+1/2'
  115  'z+1/2, -y, x+1/2'
  116  '-z+1/2, y, -x+1/2'
  117  'z+1/2, -x, -y+1/2'
  118  '-z+1/2, x, y+1/2'
  119  'z+1/2, y, -x+1/2'
  120  '-z+1/2, -y, x+1/2'
  121  '-z+1/2, x, -y+1/2'
  122  'z+1/2, -x, y+1/2'
  123  '-z+1/2, -y, -x+1/2'
  124  'z+1/2, y, x+1/2'
  125  '-z+1/2, -x, y+1/2'
  126  'z+1/2, x, -y+1/2'
  127  '-z+1/2, y, x+1/2'
  128  'z+1/2, -y, -x+1/2'
  129  'y+1/2, z, x+1/2'
  130  '-y+1/2, -z, -x+1/2'
  131  'x+1/2, z, -y+1/2'
  132  '-x+1/2, -z, y+1/2'
  133  '-y+1/2, z, -x+1/2'
  134  'y+1/2, -z, x+1/2'
  135  '-x+1/2, z, y+1/2'
  136  'x+1/2, -z, -y+1/2'
  137  '-y+1/2, -z, x+1/2'
  138  'y+1/2, z, -x+1/2'
  139  '-x+1/2, -z, -y+1/2'
  140  'x+1/2, z, y+1/2'
  141  'y+1/2, -z, -x+1/2'
  142  '-y+1/2, z, x+1/2'
  143  'x+1/2, -z, y+1/2'
  144  '-x+1/2, z, -y+1/2'
  145  'x, y+1/2, z+1/2'
  146  '-x, -y+1/2, -z+1/2'
  147  '-y, x+1/2, z+1/2'
  148  'y, -x+1/2, -z+1/2'
  149  '-x, -y+1/2, z+1/2'
  150  'x, y+1/2, -z+1/2'
  151  'y, -x+1/2, z+1/2'
  152  '-y, x+1/2, -z+1/2'
  153  'x, -y+1/2, -z+1/2'
  154  '-x, y+1/2, z+1/2'
  155  '-y, -x+1/2, -z+1/2'
  156  'y, x+1/2, z+1/2'
  157  '-x, y+1/2, -z+1/2'
  158  'x, -y+1/2, z+1/2'
  159  'y, x+1/2, -z+1/2'
  160  '-y, -x+1/2, z+1/2'
  161  'z, x+1/2, y+1/2'
  162  '-z, -x+1/2, -y+1/2'
  163  'z, -y+1/2, x+1/2'
  164  '-z, y+1/2, -x+1/2'
  165  'z, -x+1/2, -y+1/2'
  166  '-z, x+1/2, y+1/2'
  167  'z, y+1/2, -x+1/2'
  168  '-z, -y+1/2, x+1/2'
  169  '-z, x+1/2, -y+1/2'
  170  'z, -x+1/2, y+1/2'
  171  '-z, -y+1/2, -x+1/2'
  172  'z, y+1/2, x+1/2'
  173  '-z, -x+1/2, y+1/2'
  174  'z, x+1/2, -y+1/2'
  175  '-z, y+1/2, x+1/2'
  176  'z, -y+1/2, -x+1/2'
  177  'y, z+1/2, x+1/2'
  178  '-y, -z+1/2, -x+1/2'
  179  'x, z+1/2, -y+1/2'
  180  '-x, -z+1/2, y+1/2'
  181  '-y, z+1/2, -x+1/2'
  182  'y, -z+1/2, x+1/2'
  183  '-x, z+1/2, y+1/2'
  184  'x, -z+1/2, -y+1/2'
  185  '-y, -z+1/2, x+1/2'
  186  'y, z+1/2, -x+1/2'
  187  '-x, -z+1/2, -y+1/2'
  188  'x, z+1/2, y+1/2'
  189  'y, -z+1/2, -x+1/2'
  190  '-y, z+1/2, x+1/2'
  191  'x, -z+1/2, y+1/2'
  192  '-x, z+1/2, -y+1/2'
loop_
 _atom_site_type_symbol
 _atom_site_label
 _atom_site_symmetry_multiplicity
 _atom_site_fract_x
 _atom_site_fract_y
 _atom_site_fract_z
 _atom_site_occupancy
  Au  Au0  4  0.00000000  0.00000000  0.50000000  1
# generated using pymatgen
data_ID_77
_symmetry_space_group_name_H-M   Cmmm
_cell_length_a   4.73970145
_cell_length_b   7.82986925
_cell_length_c   8.04329495
_cell_angle_alpha   90.00000000
_cell_angle_beta   90.00000000
_cell_angle_gamma   90.00000000
_symmetry_Int_Tables_number   65
_chemical_formula_structural   Au
_cell_volume   298.49667036
_cell_formula_units_Z   16
loop_
 _symmetry_equiv_pos_site_id
 _symmetry_equiv_pos_as_xyz
  1  'x, y, z'
  2  '-x, -y, -z'
  3  '-x, -y, z'
  4  'x, y, -z'
  5  'x, -y, -z'
  6  '-x, y, z'
  7  '-x, y, -z'
  8  'x, -y, z'
  9  'x+1/2, y+1/2, z'
  10  '-x+1/2, -y+1/2, -z'
  11  '-x+1/2, -y+1/2, z'
  12  'x+1/2, y+1/2, -z'
  13  'x+1/2, -y+1/2, -z'
  14  '-x+1/2, y+1/2, z'
  15  '-x+1/2, y+1/2, -z'
  16  'x+1/2, -y+1/2, z'
loop_
 _atom_site_type_symbol
 _atom_site_label
 _atom_site_symmetry_multiplicity
 _atom_site_fract_x
 _atom_site_fract_y
 _atom_site_fract_z
 _atom_site_occupancy
  Au  Au0  8  0.00000000  0.33080273  0.32391446  1
  Au  Au1  4  0.00000000  0.00000000  0.16998158  1
  Au  Au2  2  0.00000000  0.00000000  0.50000000  1
  Au  Au3  2  0.00000000  0.50000000  0.00000000  1
# generated using pymatgen
data_ID_78
_symmetry_space_group_name_H-M   Cmmm
_cell_length_a   2.81840872
_cell_length_b   4.74859740
_cell_length_c   16.16844102
_cell_angle_alpha   90.00000000
_cell_angle_beta   90.00000000
_cell_angle_gamma   90.00000000
_symmetry_Int_Tables_number   65
_chemical_formula_structural   Au
_cell_volume   216.39014135
_cell_formula_units_Z   8
loop_
 _symmetry_equiv_pos_site_id
 _symmetry_equiv_pos_as_xyz
  1  'x, y, z'
  2  '-x, -y, -z'
  3  '-x, -y, z'
  4  'x, y, -z'
  5  'x, -y, -z'
  6  '-x, y, z'
  7  '-x, y, -z'
  8  'x, -y, z'
  9  'x+1/2, y+1/2, z'
  10  '-x+1/2, -y+1/2, -z'
  11  '-x+1/2, -y+1/2, z'
  12  'x+1/2, y+1/2, -z'
  13  'x+1/2, -y+1/2, -z'
  14  '-x+1/2, y+1/2, z'
  15  '-x+1/2, y+1/2, -z'
  16  'x+1/2, -y+1/2, z'
loop_
 _atom_site_type_symbol
 _atom_site_label
 _atom_site_symmetry_multiplicity
 _atom_site_fract_x
 _atom_site_fract_y
 _atom_site_fract_z
 _atom_site_occupancy
  Au  Au0  4  0.00000000  0.00000000  0.15025536  1
  Au  Au1  2  0.00000000  0.00000000  0.50000000  1
  Au  Au2  2  0.00000000  0.50000000  0.00000000  1
# generated using pymatgen
data_ID_79
_symmetry_space_group_name_H-M   P4_322
_cell_length_a   4.89600414
_cell_length_b   4.89600414
_cell_length_c   6.85195332
_cell_angle_alpha   90.00000000
_cell_angle_beta   90.00000000
_cell_angle_gamma   90.00000000
_symmetry_Int_Tables_number   95
_chemical_formula_structural   Au
_cell_volume   164.24719027
_cell_formula_units_Z   8
loop_
 _symmetry_equiv_pos_site_id
 _symmetry_equiv_pos_as_xyz
  1  'x, y, z'
  2  '-y, x, z+3/4'
  3  '-x, -y, z+1/2'
  4  'y, -x, z+1/4'
  5  'x, -y, -z+1/2'
  6  '-y, -x, -z+3/4'
  7  '-x, y, -z'
  8  'y, x, -z+1/4'
loop_
 _atom_site_type_symbol
 _atom_site_label
 _atom_site_symmetry_multiplicity
 _atom_site_fract_x
 _atom_site_fract_y
 _atom_site_fract_z
 _atom_site_occupancy
  Au  Au0  4  0.00000000  0.29668583  0.50000000  1
  Au  Au1  4  0.22444551  0.22444551  0.12500000  1
# generated using pymatgen
data_ID_80
_symmetry_space_group_name_H-M   R-3c
_cell_length_a   7.16918590
_cell_length_b   7.16918590
_cell_length_c   9.28108609
_cell_angle_alpha   90.00000000
_cell_angle_beta   90.00000000
_cell_angle_gamma   120.00000000
_symmetry_Int_Tables_number   167
_chemical_formula_structural   Au
_cell_volume   413.11324239
_cell_formula_units_Z   24
loop_
 _symmetry_equiv_pos_site_id
 _symmetry_equiv_pos_as_xyz
  1  'x, y, z'
  2  '-x, -y, -z'
  3  '-y, x-y, z'
  4  'y, -x+y, -z'
  5  '-x+y, -x, z'
  6  'x-y, x, -z'
  7  'y, x, -z+1/2'
  8  '-y, -x, z+1/2'
  9  'x-y, -y, -z+1/2'
  10  '-x+y, y, z+1/2'
  11  '-x, -x+y, -z+1/2'
  12  'x, x-y, z+1/2'
  13  'x+2/3, y+1/3, z+1/3'
  14  '-x+2/3, -y+1/3, -z+1/3'
  15  '-y+2/3, x-y+1/3, z+1/3'
  16  'y+2/3, -x+y+1/3, -z+1/3'
  17  '-x+y+2/3, -x+1/3, z+1/3'
  18  'x-y+2/3, x+1/3, -z+1/3'
  19  'y+2/3, x+1/3, -z+5/6'
  20  '-y+2/3, -x+1/3, z+5/6'
  21  'x-y+2/3, -y+1/3, -z+5/6'
  22  '-x+y+2/3, y+1/3, z+5/6'
  23  '-x+2/3, -x+y+1/3, -z+5/6'
  24  'x+2/3, x-y+1/3, z+5/6'
  25  'x+1/3, y+2/3, z+2/3'
  26  '-x+1/3, -y+2/3, -z+2/3'
  27  '-y+1/3, x-y+2/3, z+2/3'
  28  'y+1/3, -x+y+2/3, -z+2/3'
  29  '-x+y+1/3, -x+2/3, z+2/3'
  30  'x-y+1/3, x+2/3, -z+2/3'
  31  'y+1/3, x+2/3, -z+1/6'
  32  '-y+1/3, -x+2/3, z+1/6'
  33  'x-y+1/3, -y+2/3, -z+1/6'
  34  '-x+y+1/3, y+2/3, z+1/6'
  35  '-x+1/3, -x+y+2/3, -z+1/6'
  36  'x+1/3, x-y+2/3, z+1/6'
loop_
 _atom_site_type_symbol
 _atom_site_label
 _atom_site_symmetry_multiplicity
 _atom_site_fract_x
 _atom_site_fract_y
 _atom_site_fract_z
 _atom_site_occupancy
  Au  Au0  18  0.00000000  0.24060428  0.25000000  1
  Au  Au1  6  0.00000000  0.00000000  0.00000000  1
# generated using pymatgen
data_ID_81
_symmetry_space_group_name_H-M   P6/mmm
_cell_length_a   5.40450450
_cell_length_b   5.40450450
_cell_length_c   15.88671917
_cell_angle_alpha   90.00000000
_cell_angle_beta   90.00000000
_cell_angle_gamma   120.00000000
_symmetry_Int_Tables_number   191
_chemical_formula_structural   Au
_cell_volume   401.86169811
_cell_formula_units_Z   8
loop_
 _symmetry_equiv_pos_site_id
 _symmetry_equiv_pos_as_xyz
  1  'x, y, z'
  2  '-x, -y, -z'
  3  'x-y, x, z'
  4  '-x+y, -x, -z'
  5  '-y, x-y, z'
  6  'y, -x+y, -z'
  7  '-x, -y, z'
  8  'x, y, -z'
  9  '-x+y, -x, z'
  10  'x-y, x, -z'
  11  'y, -x+y, z'
  12  '-y, x-y, -z'
  13  '-y, -x, -z'
  14  'y, x, z'
  15  '-x, -x+y, -z'
  16  'x, x-y, z'
  17  '-x+y, y, -z'
  18  'x-y, -y, z'
  19  'y, x, -z'
  20  '-y, -x, z'
  21  'x, x-y, -z'
  22  '-x, -x+y, z'
  23  'x-y, -y, -z'
  24  '-x+y, y, z'
loop_
 _atom_site_type_symbol
 _atom_site_label
 _atom_site_symmetry_multiplicity
 _atom_site_fract_x
 _atom_site_fract_y
 _atom_site_fract_z
 _atom_site_occupancy
  Au  Au0  6  0.00000000  0.50000000  0.35745799  1
  Au  Au1  2  0.33333333  0.66666667  0.50000000  1
# generated using pymatgen
data_ID_82
_symmetry_space_group_name_H-M   P31m
_cell_length_a   4.71334698
_cell_length_b   4.71334698
_cell_length_c   11.89169326
_cell_angle_alpha   90.00000000
_cell_angle_beta   90.00000000
_cell_angle_gamma   120.00000000
_symmetry_Int_Tables_number   157
_chemical_formula_structural   Au
_cell_volume   228.78795423
_cell_formula_units_Z   8
loop_
 _symmetry_equiv_pos_site_id
 _symmetry_equiv_pos_as_xyz
  1  'x, y, z'
  2  '-y, x-y, z'
  3  '-x+y, -x, z'
  4  'y, x, z'
  5  'x-y, -y, z'
  6  '-x, -x+y, z'
loop_
 _atom_site_type_symbol
 _atom_site_label
 _atom_site_symmetry_multiplicity
 _atom_site_fract_x
 _atom_site_fract_y
 _atom_site_fract_z
 _atom_site_occupancy
  Au  Au0  3  0.00000000  0.66807165  0.79544825  1
  Au  Au1  2  0.33333333  0.66666667  0.21415612  1
  Au  Au2  2  0.33333333  0.66666667  0.99441913  1
  Au  Au3  1  0.00000000  0.00000000  0.11132962  1
# generated using pymatgen
data_ID_83
_symmetry_space_group_name_H-M   P6mm
_cell_length_a   5.27420060
_cell_length_b   5.27420060
_cell_length_c   7.73002389
_cell_angle_alpha   90.00000000
_cell_angle_beta   90.00000000
_cell_angle_gamma   120.00000000
_symmetry_Int_Tables_number   183
_chemical_formula_structural   Au
_cell_volume   186.21932841
_cell_formula_units_Z   8
loop_
 _symmetry_equiv_pos_site_id
 _symmetry_equiv_pos_as_xyz
  1  'x, y, z'
  2  'x-y, x, z'
  3  '-y, x-y, z'
  4  '-x, -y, z'
  5  '-x+y, -x, z'
  6  'y, -x+y, z'
  7  'y, x, z'
  8  'x, x-y, z'
  9  'x-y, -y, z'
  10  '-y, -x, z'
  11  '-x, -x+y, z'
  12  '-x+y, y, z'
loop_
 _atom_site_type_symbol
 _atom_site_label
 _atom_site_symmetry_multiplicity
 _atom_site_fract_x
 _atom_site_fract_y
 _atom_site_fract_z
 _atom_site_occupancy
  Au  Au0  3  0.00000000  0.50000000  0.61336083  1
  Au  Au1  2  0.33333333  0.66666667  0.31388377  1
  Au  Au2  1  0.00000000  0.00000000  0.11379520  1
  Au  Au3  1  0.00000000  0.00000000  0.43745398  1
  Au  Au4  1  0.00000000  0.00000000  0.78140455  1
# generated using pymatgen
data_ID_84
_symmetry_space_group_name_H-M   I4
_cell_length_a   5.38125911
_cell_length_b   5.38125911
_cell_length_c   13.06285717
_cell_angle_alpha   90.00000000
_cell_angle_beta   90.00000000
_cell_angle_gamma   90.00000000
_symmetry_Int_Tables_number   79
_chemical_formula_structural   Au
_cell_volume   378.27356041
_cell_formula_units_Z   16
loop_
 _symmetry_equiv_pos_site_id
 _symmetry_equiv_pos_as_xyz
  1  'x, y, z'
  2  '-y, x, z'
  3  '-x, -y, z'
  4  'y, -x, z'
  5  'x+1/2, y+1/2, z+1/2'
  6  '-y+1/2, x+1/2, z+1/2'
  7  '-x+1/2, -y+1/2, z+1/2'
  8  'y+1/2, -x+1/2, z+1/2'
loop_
 _atom_site_type_symbol
 _atom_site_label
 _atom_site_symmetry_multiplicity
 _atom_site_fract_x
 _atom_site_fract_y
 _atom_site_fract_z
 _atom_site_occupancy
  Au  Au0  8  0.18712567  0.69041676  0.82091399  1
  Au  Au1  4  0.00000000  0.50000000  0.14613996  1
  Au  Au2  2  0.00000000  0.00000000  0.16961336  1
  Au  Au3  2  0.00000000  0.00000000  0.96772279  1
# generated using pymatgen
data_ID_85
_symmetry_space_group_name_H-M   P6/mmm
_cell_length_a   4.75084102
_cell_length_b   4.75084102
_cell_length_c   5.10166815
_cell_angle_alpha   90.00000000
_cell_angle_beta   90.00000000
_cell_angle_gamma   120.00000000
_symmetry_Int_Tables_number   191
_chemical_formula_structural   Au
_cell_volume   99.72035896
_cell_formula_units_Z   4
loop_
 _symmetry_equiv_pos_site_id
 _symmetry_equiv_pos_as_xyz
  1  'x, y, z'
  2  '-x, -y, -z'
  3  'x-y, x, z'
  4  '-x+y, -x, -z'
  5  '-y, x-y, z'
  6  'y, -x+y, -z'
  7  '-x, -y, z'
  8  'x, y, -z'
  9  '-x+y, -x, z'
  10  'x-y, x, -z'
  11  'y, -x+y, z'
  12  '-y, x-y, -z'
  13  '-y, -x, -z'
  14  'y, x, z'
  15  '-x, -x+y, -z'
  16  'x, x-y, z'
  17  '-x+y, y, -z'
  18  'x-y, -y, z'
  19  'y, x, -z'
  20  '-y, -x, z'
  21  'x, x-y, -z'
  22  '-x, -x+y, z'
  23  'x-y, -y, -z'
  24  '-x+y, y, z'
loop_
 _atom_site_type_symbol
 _atom_site_label
 _atom_site_symmetry_multiplicity
 _atom_site_fract_x
 _atom_site_fract_y
 _atom_site_fract_z
 _atom_site_occupancy
  Au  Au0  2  0.33333333  0.66666667  0.50000000  1
  Au  Au1  1  0.00000000  0.00000000  0.00000000  1
  Au  Au2  1  0.00000000  0.00000000  0.50000000  1
# generated using pymatgen
data_ID_86
_symmetry_space_group_name_H-M   Pm-3m
_cell_length_a   2.70745481
_cell_length_b   2.70745481
_cell_length_c   2.70745481
_cell_angle_alpha   90.00000000
_cell_angle_beta   90.00000000
_cell_angle_gamma   90.00000000
_symmetry_Int_Tables_number   221
_chemical_formula_structural   Au
_cell_volume   19.84648718
_cell_formula_units_Z   1
loop_
 _symmetry_equiv_pos_site_id
 _symmetry_equiv_pos_as_xyz
  1  'x, y, z'
  2  '-x, -y, -z'
  3  '-y, x, z'
  4  'y, -x, -z'
  5  '-x, -y, z'
  6  'x, y, -z'
  7  'y, -x, z'
  8  '-y, x, -z'
  9  'x, -y, -z'
  10  '-x, y, z'
  11  '-y, -x, -z'
  12  'y, x, z'
  13  '-x, y, -z'
  14  'x, -y, z'
  15  'y, x, -z'
  16  '-y, -x, z'
  17  'z, x, y'
  18  '-z, -x, -y'
  19  'z, -y, x'
  20  '-z, y, -x'
  21  'z, -x, -y'
  22  '-z, x, y'
  23  'z, y, -x'
  24  '-z, -y, x'
  25  '-z, x, -y'
  26  'z, -x, y'
  27  '-z, -y, -x'
  28  'z, y, x'
  29  '-z, -x, y'
  30  'z, x, -y'
  31  '-z, y, x'
  32  'z, -y, -x'
  33  'y, z, x'
  34  '-y, -z, -x'
  35  'x, z, -y'
  36  '-x, -z, y'
  37  '-y, z, -x'
  38  'y, -z, x'
  39  '-x, z, y'
  40  'x, -z, -y'
  41  '-y, -z, x'
  42  'y, z, -x'
  43  '-x, -z, -y'
  44  'x, z, y'
  45  'y, -z, -x'
  46  '-y, z, x'
  47  'x, -z, y'
  48  '-x, z, -y'
loop_
 _atom_site_type_symbol
 _atom_site_label
 _atom_site_symmetry_multiplicity
 _atom_site_fract_x
 _atom_site_fract_y
 _atom_site_fract_z
 _atom_site_occupancy
  Au  Au0  1  0.00000000  0.00000000  0.00000000  1
# generated using pymatgen
data_ID_87
_symmetry_space_group_name_H-M   P4/mmm
_cell_length_a   3.92243917
_cell_length_b   3.92243917
_cell_length_c   6.43783597
_cell_angle_alpha   90.00000000
_cell_angle_beta   90.00000000
_cell_angle_gamma   90.00000000
_symmetry_Int_Tables_number   123
_chemical_formula_structural   Au
_cell_volume   99.04951229
_cell_formula_units_Z   4
loop_
 _symmetry_equiv_pos_site_id
 _symmetry_equiv_pos_as_xyz
  1  'x, y, z'
  2  '-x, -y, -z'
  3  '-y, x, z'
  4  'y, -x, -z'
  5  '-x, -y, z'
  6  'x, y, -z'
  7  'y, -x, z'
  8  '-y, x, -z'
  9  'x, -y, -z'
  10  '-x, y, z'
  11  '-y, -x, -z'
  12  'y, x, z'
  13  '-x, y, -z'
  14  'x, -y, z'
  15  'y, x, -z'
  16  '-y, -x, z'
loop_
 _atom_site_type_symbol
 _atom_site_label
 _atom_site_symmetry_multiplicity
 _atom_site_fract_x
 _atom_site_fract_y
 _atom_site_fract_z
 _atom_site_occupancy
  Au  Au0  2  0.00000000  0.50000000  0.50000000  1
  Au  Au1  2  0.50000000  0.50000000  0.20379063  1
# generated using pymatgen
data_ID_88
_symmetry_space_group_name_H-M   F-43m
_cell_length_a   8.99578621
_cell_length_b   8.99578621
_cell_length_c   8.99578621
_cell_angle_alpha   90.00000000
_cell_angle_beta   90.00000000
_cell_angle_gamma   90.00000000
_symmetry_Int_Tables_number   216
_chemical_formula_structural   Au
_cell_volume   727.97652786
_cell_formula_units_Z   32
loop_
 _symmetry_equiv_pos_site_id
 _symmetry_equiv_pos_as_xyz
  1  'x, y, z'
  2  'y, -x, -z'
  3  '-x, -y, z'
  4  '-y, x, -z'
  5  'x, -y, -z'
  6  'y, x, z'
  7  '-x, y, -z'
  8  '-y, -x, z'
  9  'z, x, y'
  10  '-z, y, -x'
  11  'z, -x, -y'
  12  '-z, -y, x'
  13  '-z, x, -y'
  14  'z, y, x'
  15  '-z, -x, y'
  16  'z, -y, -x'
  17  'y, z, x'
  18  '-x, -z, y'
  19  '-y, z, -x'
  20  'x, -z, -y'
  21  '-y, -z, x'
  22  'x, z, y'
  23  'y, -z, -x'
  24  '-x, z, -y'
  25  'x+1/2, y+1/2, z'
  26  'y+1/2, -x+1/2, -z'
  27  '-x+1/2, -y+1/2, z'
  28  '-y+1/2, x+1/2, -z'
  29  'x+1/2, -y+1/2, -z'
  30  'y+1/2, x+1/2, z'
  31  '-x+1/2, y+1/2, -z'
  32  '-y+1/2, -x+1/2, z'
  33  'z+1/2, x+1/2, y'
  34  '-z+1/2, y+1/2, -x'
  35  'z+1/2, -x+1/2, -y'
  36  '-z+1/2, -y+1/2, x'
  37  '-z+1/2, x+1/2, -y'
  38  'z+1/2, y+1/2, x'
  39  '-z+1/2, -x+1/2, y'
  40  'z+1/2, -y+1/2, -x'
  41  'y+1/2, z+1/2, x'
  42  '-x+1/2, -z+1/2, y'
  43  '-y+1/2, z+1/2, -x'
  44  'x+1/2, -z+1/2, -y'
  45  '-y+1/2, -z+1/2, x'
  46  'x+1/2, z+1/2, y'
  47  'y+1/2, -z+1/2, -x'
  48  '-x+1/2, z+1/2, -y'
  49  'x+1/2, y, z+1/2'
  50  'y+1/2, -x, -z+1/2'
  51  '-x+1/2, -y, z+1/2'
  52  '-y+1/2, x, -z+1/2'
  53  'x+1/2, -y, -z+1/2'
  54  'y+1/2, x, z+1/2'
  55  '-x+1/2, y, -z+1/2'
  56  '-y+1/2, -x, z+1/2'
  57  'z+1/2, x, y+1/2'
  58  '-z+1/2, y, -x+1/2'
  59  'z+1/2, -x, -y+1/2'
  60  '-z+1/2, -y, x+1/2'
  61  '-z+1/2, x, -y+1/2'
  62  'z+1/2, y, x+1/2'
  63  '-z+1/2, -x, y+1/2'
  64  'z+1/2, -y, -x+1/2'
  65  'y+1/2, z, x+1/2'
  66  '-x+1/2, -z, y+1/2'
  67  '-y+1/2, z, -x+1/2'
  68  'x+1/2, -z, -y+1/2'
  69  '-y+1/2, -z, x+1/2'
  70  'x+1/2, z, y+1/2'
  71  'y+1/2, -z, -x+1/2'
  72  '-x+1/2, z, -y+1/2'
  73  'x, y+1/2, z+1/2'
  74  'y, -x+1/2, -z+1/2'
  75  '-x, -y+1/2, z+1/2'
  76  '-y, x+1/2, -z+1/2'
  77  'x, -y+1/2, -z+1/2'
  78  'y, x+1/2, z+1/2'
  79  '-x, y+1/2, -z+1/2'
  80  '-y, -x+1/2, z+1/2'
  81  'z, x+1/2, y+1/2'
  82  '-z, y+1/2, -x+1/2'
  83  'z, -x+1/2, -y+1/2'
  84  '-z, -y+1/2, x+1/2'
  85  '-z, x+1/2, -y+1/2'
  86  'z, y+1/2, x+1/2'
  87  '-z, -x+1/2, y+1/2'
  88  'z, -y+1/2, -x+1/2'
  89  'y, z+1/2, x+1/2'
  90  '-x, -z+1/2, y+1/2'
  91  '-y, z+1/2, -x+1/2'
  92  'x, -z+1/2, -y+1/2'
  93  '-y, -z+1/2, x+1/2'
  94  'x, z+1/2, y+1/2'
  95  'y, -z+1/2, -x+1/2'
  96  '-x, z+1/2, -y+1/2'
loop_
 _atom_site_type_symbol
 _atom_site_label
 _atom_site_symmetry_multiplicity
 _atom_site_fract_x
 _atom_site_fract_y
 _atom_site_fract_z
 _atom_site_occupancy
  Au  Au0  24  0.00000000  0.00000000  0.21184151  1
  Au  Au1  4  0.00000000  0.00000000  0.50000000  1
  Au  Au2  4  0.25000000  0.25000000  0.25000000  1
# generated using pymatgen
data_ID_89
_symmetry_space_group_name_H-M   I4/mmm
_cell_length_a   2.77871720
_cell_length_b   2.77871720
_cell_length_c   9.63195155
_cell_angle_alpha   90.00000000
_cell_angle_beta   90.00000000
_cell_angle_gamma   90.00000000
_symmetry_Int_Tables_number   139
_chemical_formula_structural   Au
_cell_volume   74.37089149
_cell_formula_units_Z   4
loop_
 _symmetry_equiv_pos_site_id
 _symmetry_equiv_pos_as_xyz
  1  'x, y, z'
  2  '-x, -y, -z'
  3  '-y, x, z'
  4  'y, -x, -z'
  5  '-x, -y, z'
  6  'x, y, -z'
  7  'y, -x, z'
  8  '-y, x, -z'
  9  'x, -y, -z'
  10  '-x, y, z'
  11  '-y, -x, -z'
  12  'y, x, z'
  13  '-x, y, -z'
  14  'x, -y, z'
  15  'y, x, -z'
  16  '-y, -x, z'
  17  'x+1/2, y+1/2, z+1/2'
  18  '-x+1/2, -y+1/2, -z+1/2'
  19  '-y+1/2, x+1/2, z+1/2'
  20  'y+1/2, -x+1/2, -z+1/2'
  21  '-x+1/2, -y+1/2, z+1/2'
  22  'x+1/2, y+1/2, -z+1/2'
  23  'y+1/2, -x+1/2, z+1/2'
  24  '-y+1/2, x+1/2, -z+1/2'
  25  'x+1/2, -y+1/2, -z+1/2'
  26  '-x+1/2, y+1/2, z+1/2'
  27  '-y+1/2, -x+1/2, -z+1/2'
  28  'y+1/2, x+1/2, z+1/2'
  29  '-x+1/2, y+1/2, -z+1/2'
  30  'x+1/2, -y+1/2, z+1/2'
  31  'y+1/2, x+1/2, -z+1/2'
  32  '-y+1/2, -x+1/2, z+1/2'
loop_
 _atom_site_type_symbol
 _atom_site_label
 _atom_site_symmetry_multiplicity
 _atom_site_fract_x
 _atom_site_fract_y
 _atom_site_fract_z
 _atom_site_occupancy
  Au  Au0  4  0.00000000  0.00000000  0.35695656  1
# generated using pymatgen
data_ID_90
_symmetry_space_group_name_H-M   P-6m2
_cell_length_a   6.85556563
_cell_length_b   6.85556563
_cell_length_c   7.48171505
_cell_angle_alpha   90.00000000
_cell_angle_beta   90.00000000
_cell_angle_gamma   120.00000000
_symmetry_Int_Tables_number   187
_chemical_formula_structural   Au
_cell_volume   304.52179506
_cell_formula_units_Z   8
loop_
 _symmetry_equiv_pos_site_id
 _symmetry_equiv_pos_as_xyz
  1  'x, y, z'
  2  '-x+y, -x, -z'
  3  '-y, x-y, z'
  4  'x, y, -z'
  5  '-x+y, -x, z'
  6  '-y, x-y, -z'
  7  '-y, -x, -z'
  8  'x, x-y, z'
  9  '-x+y, y, -z'
  10  '-y, -x, z'
  11  'x, x-y, -z'
  12  '-x+y, y, z'
loop_
 _atom_site_type_symbol
 _atom_site_label
 _atom_site_symmetry_multiplicity
 _atom_site_fract_x
 _atom_site_fract_y
 _atom_site_fract_z
 _atom_site_occupancy
  Au  Au0  3  0.12299513  0.24599025  0.50000000  1
  Au  Au1  2  0.33333333  0.66666667  0.83909452  1
  Au  Au2  1  0.00000000  0.00000000  0.00000000  1
  Au  Au3  1  0.33333333  0.66666667  0.50000000  1
  Au  Au4  1  0.66666667  0.33333333  0.50000000  1
# generated using pymatgen
data_ID_91
_symmetry_space_group_name_H-M   I4/mmm
_cell_length_a   7.26400157
_cell_length_b   7.26400157
_cell_length_c   2.81005148
_cell_angle_alpha   90.00000000
_cell_angle_beta   90.00000000
_cell_angle_gamma   90.00000000
_symmetry_Int_Tables_number   139
_chemical_formula_structural   Au
_cell_volume   148.27438643
_cell_formula_units_Z   8
loop_
 _symmetry_equiv_pos_site_id
 _symmetry_equiv_pos_as_xyz
  1  'x, y, z'
  2  '-x, -y, -z'
  3  '-y, x, z'
  4  'y, -x, -z'
  5  '-x, -y, z'
  6  'x, y, -z'
  7  'y, -x, z'
  8  '-y, x, -z'
  9  'x, -y, -z'
  10  '-x, y, z'
  11  '-y, -x, -z'
  12  'y, x, z'
  13  '-x, y, -z'
  14  'x, -y, z'
  15  'y, x, -z'
  16  '-y, -x, z'
  17  'x+1/2, y+1/2, z+1/2'
  18  '-x+1/2, -y+1/2, -z+1/2'
  19  '-y+1/2, x+1/2, z+1/2'
  20  'y+1/2, -x+1/2, -z+1/2'
  21  '-x+1/2, -y+1/2, z+1/2'
  22  'x+1/2, y+1/2, -z+1/2'
  23  'y+1/2, -x+1/2, z+1/2'
  24  '-y+1/2, x+1/2, -z+1/2'
  25  'x+1/2, -y+1/2, -z+1/2'
  26  '-x+1/2, y+1/2, z+1/2'
  27  '-y+1/2, -x+1/2, -z+1/2'
  28  'y+1/2, x+1/2, z+1/2'
  29  '-x+1/2, y+1/2, -z+1/2'
  30  'x+1/2, -y+1/2, z+1/2'
  31  'y+1/2, x+1/2, -z+1/2'
  32  '-y+1/2, -x+1/2, z+1/2'
loop_
 _atom_site_type_symbol
 _atom_site_label
 _atom_site_symmetry_multiplicity
 _atom_site_fract_x
 _atom_site_fract_y
 _atom_site_fract_z
 _atom_site_occupancy
  Au  Au0  8  0.00000000  0.26644681  0.50000000  1
# generated using pymatgen
data_ID_92
_symmetry_space_group_name_H-M   Pm-3m
_cell_length_a   2.70698000
_cell_length_b   2.70698000
_cell_length_c   2.70698000
_cell_angle_alpha   90.00000000
_cell_angle_beta   90.00000000
_cell_angle_gamma   90.00000000
_symmetry_Int_Tables_number   221
_chemical_formula_structural   Au
_cell_volume   19.83604752
_cell_formula_units_Z   1
loop_
 _symmetry_equiv_pos_site_id
 _symmetry_equiv_pos_as_xyz
  1  'x, y, z'
  2  '-x, -y, -z'
  3  '-y, x, z'
  4  'y, -x, -z'
  5  '-x, -y, z'
  6  'x, y, -z'
  7  'y, -x, z'
  8  '-y, x, -z'
  9  'x, -y, -z'
  10  '-x, y, z'
  11  '-y, -x, -z'
  12  'y, x, z'
  13  '-x, y, -z'
  14  'x, -y, z'
  15  'y, x, -z'
  16  '-y, -x, z'
  17  'z, x, y'
  18  '-z, -x, -y'
  19  'z, -y, x'
  20  '-z, y, -x'
  21  'z, -x, -y'
  22  '-z, x, y'
  23  'z, y, -x'
  24  '-z, -y, x'
  25  '-z, x, -y'
  26  'z, -x, y'
  27  '-z, -y, -x'
  28  'z, y, x'
  29  '-z, -x, y'
  30  'z, x, -y'
  31  '-z, y, x'
  32  'z, -y, -x'
  33  'y, z, x'
  34  '-y, -z, -x'
  35  'x, z, -y'
  36  '-x, -z, y'
  37  '-y, z, -x'
  38  'y, -z, x'
  39  '-x, z, y'
  40  'x, -z, -y'
  41  '-y, -z, x'
  42  'y, z, -x'
  43  '-x, -z, -y'
  44  'x, z, y'
  45  'y, -z, -x'
  46  '-y, z, x'
  47  'x, -z, y'
  48  '-x, z, -y'
loop_
 _atom_site_type_symbol
 _atom_site_label
 _atom_site_symmetry_multiplicity
 _atom_site_fract_x
 _atom_site_fract_y
 _atom_site_fract_z
 _atom_site_occupancy
  Au  Au0  1  0.00000000  0.00000000  0.00000000  1
# generated using pymatgen
data_ID_93
_symmetry_space_group_name_H-M   Cmcm
_cell_length_a   7.62758363
_cell_length_b   7.06394584
_cell_length_c   5.18334160
_cell_angle_alpha   90.00000000
_cell_angle_beta   90.00000000
_cell_angle_gamma   90.00000000
_symmetry_Int_Tables_number   63
_chemical_formula_structural   Au
_cell_volume   279.28278677
_cell_formula_units_Z   16
loop_
 _symmetry_equiv_pos_site_id
 _symmetry_equiv_pos_as_xyz
  1  'x, y, z'
  2  '-x, -y, -z'
  3  '-x, -y, z+1/2'
  4  'x, y, -z+1/2'
  5  'x, -y, -z'
  6  '-x, y, z'
  7  '-x, y, -z+1/2'
  8  'x, -y, z+1/2'
  9  'x+1/2, y+1/2, z'
  10  '-x+1/2, -y+1/2, -z'
  11  '-x+1/2, -y+1/2, z+1/2'
  12  'x+1/2, y+1/2, -z+1/2'
  13  'x+1/2, -y+1/2, -z'
  14  '-x+1/2, y+1/2, z'
  15  '-x+1/2, y+1/2, -z+1/2'
  16  'x+1/2, -y+1/2, z+1/2'
loop_
 _atom_site_type_symbol
 _atom_site_label
 _atom_site_symmetry_multiplicity
 _atom_site_fract_x
 _atom_site_fract_y
 _atom_site_fract_z
 _atom_site_occupancy
  Au  Au0  8  0.18561007  0.31120573  0.75000000  1
  Au  Au1  4  0.00000000  0.00000000  0.00000000  1
  Au  Au2  4  0.00000000  0.36260993  0.25000000  1
# generated using pymatgen
data_ID_94
_symmetry_space_group_name_H-M   P-31m
_cell_length_a   4.92051046
_cell_length_b   4.92051046
_cell_length_c   9.16177194
_cell_angle_alpha   90.00000000
_cell_angle_beta   90.00000000
_cell_angle_gamma   120.00000000
_symmetry_Int_Tables_number   162
_chemical_formula_structural   Au
_cell_volume   192.10135476
_cell_formula_units_Z   8
loop_
 _symmetry_equiv_pos_site_id
 _symmetry_equiv_pos_as_xyz
  1  'x, y, z'
  2  '-x, -y, -z'
  3  '-y, x-y, z'
  4  'y, -x+y, -z'
  5  '-x+y, -x, z'
  6  'x-y, x, -z'
  7  '-y, -x, -z'
  8  'y, x, z'
  9  '-x+y, y, -z'
  10  'x-y, -y, z'
  11  'x, x-y, -z'
  12  '-x, -x+y, z'
loop_
 _atom_site_type_symbol
 _atom_site_label
 _atom_site_symmetry_multiplicity
 _atom_site_fract_x
 _atom_site_fract_y
 _atom_site_fract_z
 _atom_site_occupancy
  Au  Au0  6  0.00000000  0.33559295  0.87325405  1
  Au  Au1  2  0.00000000  0.00000000  0.35965965  1
# generated using pymatgen
data_ID_95
_symmetry_space_group_name_H-M   P6_3/mcm
_cell_length_a   4.84886689
_cell_length_b   4.84886689
_cell_length_c   8.68715947
_cell_angle_alpha   90.00000000
_cell_angle_beta   90.00000000
_cell_angle_gamma   120.00000000
_symmetry_Int_Tables_number   193
_chemical_formula_structural   Au
_cell_volume   176.88416229
_cell_formula_units_Z   8
loop_
 _symmetry_equiv_pos_site_id
 _symmetry_equiv_pos_as_xyz
  1  'x, y, z'
  2  '-x, -y, -z'
  3  'x-y, x, z+1/2'
  4  '-x+y, -x, -z+1/2'
  5  '-y, x-y, z'
  6  'y, -x+y, -z'
  7  '-x, -y, z+1/2'
  8  'x, y, -z+1/2'
  9  '-x+y, -x, z'
  10  'x-y, x, -z'
  11  'y, -x+y, z+1/2'
  12  '-y, x-y, -z+1/2'
  13  '-y, -x, -z'
  14  'y, x, z'
  15  '-x, -x+y, -z+1/2'
  16  'x, x-y, z+1/2'
  17  '-x+y, y, -z'
  18  'x-y, -y, z'
  19  'y, x, -z+1/2'
  20  '-y, -x, z+1/2'
  21  'x, x-y, -z'
  22  '-x, -x+y, z'
  23  'x-y, -y, -z+1/2'
  24  '-x+y, y, z+1/2'
loop_
 _atom_site_type_symbol
 _atom_site_label
 _atom_site_symmetry_multiplicity
 _atom_site_fract_x
 _atom_site_fract_y
 _atom_site_fract_z
 _atom_site_occupancy
  Au  Au0  6  0.00000000  0.34074902  0.75000000  1
  Au  Au1  2  0.00000000  0.00000000  0.00000000  1
# generated using pymatgen
data_ID_96
_symmetry_space_group_name_H-M   I-43d
_cell_length_a   6.45773139
_cell_length_b   6.45773139
_cell_length_c   6.45773139
_cell_angle_alpha   90.00000000
_cell_angle_beta   90.00000000
_cell_angle_gamma   90.00000000
_symmetry_Int_Tables_number   220
_chemical_formula_structural   Au
_cell_volume   269.30221751
_cell_formula_units_Z   16
loop_
 _symmetry_equiv_pos_site_id
 _symmetry_equiv_pos_as_xyz
  1  'x, y, z'
  2  'y+1/4, -x+3/4, -z+1/4'
  3  '-x, -y+1/2, z'
  4  '-y+3/4, x+3/4, -z+1/4'
  5  'x, -y, -z+1/2'
  6  'y+1/4, x+1/4, z+1/4'
  7  '-x, y+1/2, -z+1/2'
  8  '-y+3/4, -x+1/4, z+1/4'
  9  'z, x, y'
  10  '-z+1/4, y+1/4, -x+3/4'
  11  'z, -x, -y+1/2'
  12  '-z+1/4, -y+3/4, x+3/4'
  13  '-z+1/2, x, -y'
  14  'z+1/4, y+1/4, x+1/4'
  15  '-z+1/2, -x, y+1/2'
  16  'z+1/4, -y+3/4, -x+1/4'
  17  'y, z, x'
  18  '-x+3/4, -z+1/4, y+1/4'
  19  '-y+1/2, z, -x'
  20  'x+3/4, -z+1/4, -y+3/4'
  21  '-y, -z+1/2, x'
  22  'x+1/4, z+1/4, y+1/4'
  23  'y+1/2, -z+1/2, -x'
  24  '-x+1/4, z+1/4, -y+3/4'
  25  'x+1/2, y+1/2, z+1/2'
  26  'y+3/4, -x+1/4, -z+3/4'
  27  '-x+1/2, -y, z+1/2'
  28  '-y+1/4, x+1/4, -z+3/4'
  29  'x+1/2, -y+1/2, -z'
  30  'y+3/4, x+3/4, z+3/4'
  31  '-x+1/2, y, -z'
  32  '-y+1/4, -x+3/4, z+3/4'
  33  'z+1/2, x+1/2, y+1/2'
  34  '-z+3/4, y+3/4, -x+1/4'
  35  'z+1/2, -x+1/2, -y'
  36  '-z+3/4, -y+1/4, x+1/4'
  37  '-z, x+1/2, -y+1/2'
  38  'z+3/4, y+3/4, x+3/4'
  39  '-z, -x+1/2, y'
  40  'z+3/4, -y+1/4, -x+3/4'
  41  'y+1/2, z+1/2, x+1/2'
  42  '-x+1/4, -z+3/4, y+3/4'
  43  '-y, z+1/2, -x+1/2'
  44  'x+1/4, -z+3/4, -y+1/4'
  45  '-y+1/2, -z, x+1/2'
  46  'x+3/4, z+3/4, y+3/4'
  47  'y, -z, -x+1/2'
  48  '-x+3/4, z+3/4, -y+1/4'
loop_
 _atom_site_type_symbol
 _atom_site_label
 _atom_site_symmetry_multiplicity
 _atom_site_fract_x
 _atom_site_fract_y
 _atom_site_fract_z
 _atom_site_occupancy
  Au  Au0  16  0.02198619  0.02198619  0.02198619  1
# generated using pymatgen
data_ID_97
_symmetry_space_group_name_H-M   Pm-3m
_cell_length_a   2.70741117
_cell_length_b   2.70741117
_cell_length_c   2.70741117
_cell_angle_alpha   90.00000000
_cell_angle_beta   90.00000000
_cell_angle_gamma   90.00000000
_symmetry_Int_Tables_number   221
_chemical_formula_structural   Au
_cell_volume   19.84552768
_cell_formula_units_Z   1
loop_
 _symmetry_equiv_pos_site_id
 _symmetry_equiv_pos_as_xyz
  1  'x, y, z'
  2  '-x, -y, -z'
  3  '-y, x, z'
  4  'y, -x, -z'
  5  '-x, -y, z'
  6  'x, y, -z'
  7  'y, -x, z'
  8  '-y, x, -z'
  9  'x, -y, -z'
  10  '-x, y, z'
  11  '-y, -x, -z'
  12  'y, x, z'
  13  '-x, y, -z'
  14  'x, -y, z'
  15  'y, x, -z'
  16  '-y, -x, z'
  17  'z, x, y'
  18  '-z, -x, -y'
  19  'z, -y, x'
  20  '-z, y, -x'
  21  'z, -x, -y'
  22  '-z, x, y'
  23  'z, y, -x'
  24  '-z, -y, x'
  25  '-z, x, -y'
  26  'z, -x, y'
  27  '-z, -y, -x'
  28  'z, y, x'
  29  '-z, -x, y'
  30  'z, x, -y'
  31  '-z, y, x'
  32  'z, -y, -x'
  33  'y, z, x'
  34  '-y, -z, -x'
  35  'x, z, -y'
  36  '-x, -z, y'
  37  '-y, z, -x'
  38  'y, -z, x'
  39  '-x, z, y'
  40  'x, -z, -y'
  41  '-y, -z, x'
  42  'y, z, -x'
  43  '-x, -z, -y'
  44  'x, z, y'
  45  'y, -z, -x'
  46  '-y, z, x'
  47  'x, -z, y'
  48  '-x, z, -y'
loop_
 _atom_site_type_symbol
 _atom_site_label
 _atom_site_symmetry_multiplicity
 _atom_site_fract_x
 _atom_site_fract_y
 _atom_site_fract_z
 _atom_site_occupancy
  Au  Au0  1  0.00000000  0.00000000  0.00000000  1
# generated using pymatgen
data_ID_98
_symmetry_space_group_name_H-M   P4_2/mbc
_cell_length_a   5.12824751
_cell_length_b   5.12824751
_cell_length_c   12.87981937
_cell_angle_alpha   90.00000000
_cell_angle_beta   90.00000000
_cell_angle_gamma   90.00000000
_symmetry_Int_Tables_number   135
_chemical_formula_structural   Au
_cell_volume   338.72537184
_cell_formula_units_Z   8
loop_
 _symmetry_equiv_pos_site_id
 _symmetry_equiv_pos_as_xyz
  1  'x, y, z'
  2  '-x, -y, -z'
  3  '-y, x, z+1/2'
  4  'y, -x, -z+1/2'
  5  '-x, -y, z'
  6  'x, y, -z'
  7  'y, -x, z+1/2'
  8  '-y, x, -z+1/2'
  9  'x+1/2, -y+1/2, -z'
  10  '-x+1/2, y+1/2, z'
  11  '-y+1/2, -x+1/2, -z+1/2'
  12  'y+1/2, x+1/2, z+1/2'
  13  '-x+1/2, y+1/2, -z'
  14  'x+1/2, -y+1/2, z'
  15  'y+1/2, x+1/2, -z+1/2'
  16  '-y+1/2, -x+1/2, z+1/2'
loop_
 _atom_site_type_symbol
 _atom_site_label
 _atom_site_symmetry_multiplicity
 _atom_site_fract_x
 _atom_site_fract_y
 _atom_site_fract_z
 _atom_site_occupancy
  Au  Au0  8  0.12583950  0.75009239  0.00000000  1
# generated using pymatgen
data_ID_99
_symmetry_space_group_name_H-M   Fd-3m
_cell_length_a   6.05880786
_cell_length_b   6.05880786
_cell_length_c   6.05880786
_cell_angle_alpha   90.00000000
_cell_angle_beta   90.00000000
_cell_angle_gamma   90.00000000
_symmetry_Int_Tables_number   227
_chemical_formula_structural   Au
_cell_volume   222.41370330
_cell_formula_units_Z   8
loop_
 _symmetry_equiv_pos_site_id
 _symmetry_equiv_pos_as_xyz
  1  'x, y, z'
  2  '-y+1/4, x+1/4, z+1/4'
  3  '-x, -y+1/2, z+1/2'
  4  'y+3/4, -x+1/4, z+3/4'
  5  'x, -y, -z'
  6  '-y+1/4, -x+3/4, -z+3/4'
  7  '-x, y+1/2, -z+1/2'
  8  'y+3/4, x+3/4, -z+1/4'
  9  'z, x, y'
  10  'z+1/4, -y+1/4, x+1/4'
  11  'z+1/2, -x, -y+1/2'
  12  'z+3/4, y+3/4, -x+1/4'
  13  '-z, x, -y'
  14  '-z+3/4, -y+1/4, -x+3/4'
  15  '-z+1/2, -x, y+1/2'
  16  '-z+1/4, y+3/4, x+3/4'
  17  'y, z, x'
  18  'x+1/4, z+1/4, -y+1/4'
  19  '-y+1/2, z+1/2, -x'
  20  '-x+1/4, z+3/4, y+3/4'
  21  '-y, -z, x'
  22  '-x+3/4, -z+3/4, -y+1/4'
  23  'y+1/2, -z+1/2, -x'
  24  'x+3/4, -z+1/4, y+3/4'
  25  '-x+1/4, -y+1/4, -z+1/4'
  26  'y, -x, -z'
  27  'x+1/4, y+3/4, -z+3/4'
  28  '-y+1/2, x, -z+1/2'
  29  '-x+1/4, y+1/4, z+1/4'
  30  'y, x+1/2, z+1/2'
  31  'x+1/4, -y+3/4, z+3/4'
  32  '-y+1/2, -x+1/2, z'
  33  '-z+1/4, -x+1/4, -y+1/4'
  34  '-z, y, -x'
  35  '-z+3/4, x+1/4, y+3/4'
  36  '-z+1/2, -y+1/2, x'
  37  'z+1/4, -x+1/4, y+1/4'
  38  'z+1/2, y, x+1/2'
  39  'z+3/4, x+1/4, -y+3/4'
  40  'z, -y+1/2, -x+1/2'
  41  '-y+1/4, -z+1/4, -x+1/4'
  42  '-x, -z, y'
  43  'y+3/4, -z+3/4, x+1/4'
  44  'x, -z+1/2, -y+1/2'
  45  'y+1/4, z+1/4, -x+1/4'
  46  'x+1/2, z+1/2, y'
  47  '-y+3/4, z+3/4, x+1/4'
  48  '-x+1/2, z, -y+1/2'
  49  'x+1/2, y+1/2, z'
  50  '-y+3/4, x+3/4, z+1/4'
  51  '-x+1/2, -y, z+1/2'
  52  'y+1/4, -x+3/4, z+3/4'
  53  'x+1/2, -y+1/2, -z'
  54  '-y+3/4, -x+1/4, -z+3/4'
  55  '-x+1/2, y, -z+1/2'
  56  'y+1/4, x+1/4, -z+1/4'
  57  'z+1/2, x+1/2, y'
  58  'z+3/4, -y+3/4, x+1/4'
  59  'z, -x+1/2, -y+1/2'
  60  'z+1/4, y+1/4, -x+1/4'
  61  '-z+1/2, x+1/2, -y'
  62  '-z+1/4, -y+3/4, -x+3/4'
  63  '-z, -x+1/2, y+1/2'
  64  '-z+3/4, y+1/4, x+3/4'
  65  'y+1/2, z+1/2, x'
  66  'x+3/4, z+3/4, -y+1/4'
  67  '-y, z, -x'
  68  '-x+3/4, z+1/4, y+3/4'
  69  '-y+1/2, -z+1/2, x'
  70  '-x+1/4, -z+1/4, -y+1/4'
  71  'y, -z, -x'
  72  'x+1/4, -z+3/4, y+3/4'
  73  '-x+3/4, -y+3/4, -z+1/4'
  74  'y+1/2, -x+1/2, -z'
  75  'x+3/4, y+1/4, -z+3/4'
  76  '-y, x+1/2, -z+1/2'
  77  '-x+3/4, y+3/4, z+1/4'
  78  'y+1/2, x, z+1/2'
  79  'x+3/4, -y+1/4, z+3/4'
  80  '-y, -x, z'
  81  '-z+3/4, -x+3/4, -y+1/4'
  82  '-z+1/2, y+1/2, -x'
  83  '-z+1/4, x+3/4, y+3/4'
  84  '-z, -y, x'
  85  'z+3/4, -x+3/4, y+1/4'
  86  'z, y+1/2, x+1/2'
  87  'z+1/4, x+3/4, -y+3/4'
  88  'z+1/2, -y, -x+1/2'
  89  '-y+3/4, -z+3/4, -x+1/4'
  90  '-x+1/2, -z+1/2, y'
  91  'y+1/4, -z+1/4, x+1/4'
  92  'x+1/2, -z, -y+1/2'
  93  'y+3/4, z+3/4, -x+1/4'
  94  'x, z, y'
  95  '-y+1/4, z+1/4, x+1/4'
  96  '-x, z+1/2, -y+1/2'
  97  'x+1/2, y, z+1/2'
  98  '-y+3/4, x+1/4, z+3/4'
  99  '-x+1/2, -y+1/2, z'
  100  'y+1/4, -x+1/4, z+1/4'
  101  'x+1/2, -y, -z+1/2'
  102  '-y+3/4, -x+3/4, -z+1/4'
  103  '-x+1/2, y+1/2, -z'
  104  'y+1/4, x+3/4, -z+3/4'
  105  'z+1/2, x, y+1/2'
  106  'z+3/4, -y+1/4, x+3/4'
  107  'z, -x, -y'
  108  'z+1/4, y+3/4, -x+3/4'
  109  '-z+1/2, x, -y+1/2'
  110  '-z+1/4, -y+1/4, -x+1/4'
  111  '-z, -x, y'
  112  '-z+3/4, y+3/4, x+1/4'
  113  'y+1/2, z, x+1/2'
  114  'x+3/4, z+1/4, -y+3/4'
  115  '-y, z+1/2, -x+1/2'
  116  '-x+3/4, z+3/4, y+1/4'
  117  '-y+1/2, -z, x+1/2'
  118  '-x+1/4, -z+3/4, -y+3/4'
  119  'y, -z+1/2, -x+1/2'
  120  'x+1/4, -z+1/4, y+1/4'
  121  '-x+3/4, -y+1/4, -z+3/4'
  122  'y+1/2, -x, -z+1/2'
  123  'x+3/4, y+3/4, -z+1/4'
  124  '-y, x, -z'
  125  '-x+3/4, y+1/4, z+3/4'
  126  'y+1/2, x+1/2, z'
  127  'x+3/4, -y+3/4, z+1/4'
  128  '-y, -x+1/2, z+1/2'
  129  '-z+3/4, -x+1/4, -y+3/4'
  130  '-z+1/2, y, -x+1/2'
  131  '-z+1/4, x+1/4, y+1/4'
  132  '-z, -y+1/2, x+1/2'
  133  'z+3/4, -x+1/4, y+3/4'
  134  'z, y, x'
  135  'z+1/4, x+1/4, -y+1/4'
  136  'z+1/2, -y+1/2, -x'
  137  '-y+3/4, -z+1/4, -x+3/4'
  138  '-x+1/2, -z, y+1/2'
  139  'y+1/4, -z+3/4, x+3/4'
  140  'x+1/2, -z+1/2, -y'
  141  'y+3/4, z+1/4, -x+3/4'
  142  'x, z+1/2, y+1/2'
  143  '-y+1/4, z+3/4, x+3/4'
  144  '-x, z, -y'
  145  'x, y+1/2, z+1/2'
  146  '-y+1/4, x+3/4, z+3/4'
  147  '-x, -y, z'
  148  'y+3/4, -x+3/4, z+1/4'
  149  'x, -y+1/2, -z+1/2'
  150  '-y+1/4, -x+1/4, -z+1/4'
  151  '-x, y, -z'
  152  'y+3/4, x+1/4, -z+3/4'
  153  'z, x+1/2, y+1/2'
  154  'z+1/4, -y+3/4, x+3/4'
  155  'z+1/2, -x+1/2, -y'
  156  'z+3/4, y+1/4, -x+3/4'
  157  '-z, x+1/2, -y+1/2'
  158  '-z+3/4, -y+3/4, -x+1/4'
  159  '-z+1/2, -x+1/2, y'
  160  '-z+1/4, y+1/4, x+1/4'
  161  'y, z+1/2, x+1/2'
  162  'x+1/4, z+3/4, -y+3/4'
  163  '-y+1/2, z, -x+1/2'
  164  '-x+1/4, z+1/4, y+1/4'
  165  '-y, -z+1/2, x+1/2'
  166  '-x+3/4, -z+1/4, -y+3/4'
  167  'y+1/2, -z, -x+1/2'
  168  'x+3/4, -z+3/4, y+1/4'
  169  '-x+1/4, -y+3/4, -z+3/4'
  170  'y, -x+1/2, -z+1/2'
  171  'x+1/4, y+1/4, -z+1/4'
  172  '-y+1/2, x+1/2, -z'
  173  '-x+1/4, y+3/4, z+3/4'
  174  'y, x, z'
  175  'x+1/4, -y+1/4, z+1/4'
  176  '-y+1/2, -x, z+1/2'
  177  '-z+1/4, -x+3/4, -y+3/4'
  178  '-z, y+1/2, -x+1/2'
  179  '-z+3/4, x+3/4, y+1/4'
  180  '-z+1/2, -y, x+1/2'
  181  'z+1/4, -x+3/4, y+3/4'
  182  'z+1/2, y+1/2, x'
  183  'z+3/4, x+3/4, -y+1/4'
  184  'z, -y, -x'
  185  '-y+1/4, -z+3/4, -x+3/4'
  186  '-x, -z+1/2, y+1/2'
  187  'y+3/4, -z+1/4, x+3/4'
  188  'x, -z, -y'
  189  'y+1/4, z+3/4, -x+3/4'
  190  'x+1/2, z, y+1/2'
  191  '-y+3/4, z+1/4, x+3/4'
  192  '-x+1/2, z+1/2, -y'
loop_
 _atom_site_type_symbol
 _atom_site_label
 _atom_site_symmetry_multiplicity
 _atom_site_fract_x
 _atom_site_fract_y
 _atom_site_fract_z
 _atom_site_occupancy
  Au  Au0  8  0.00000000  0.00000000  0.50000000  1
