# generated using pymatgen
data_ID_0
_symmetry_space_group_name_H-M   I4_132
_cell_length_a   11.00501524
_cell_length_b   11.00501524
_cell_length_c   11.00501524
_cell_angle_alpha   90.00000000
_cell_angle_beta   90.00000000
_cell_angle_gamma   90.00000000
_symmetry_Int_Tables_number   214
_chemical_formula_structural   CuAu
_cell_volume   1332.82136379
_cell_formula_units_Z   16
loop_
 _symmetry_equiv_pos_site_id
 _symmetry_equiv_pos_as_xyz
  1  'x, y, z'
  2  '-y+1/4, x+3/4, z+1/4'
  3  '-x+1/2, -y, z+1/2'
  4  'y+1/4, -x+1/4, z+3/4'
  5  'x, -y, -z+1/2'
  6  '-y+1/4, -x+1/4, -z+1/4'
  7  '-x+1/2, y, -z'
  8  'y+1/4, x+3/4, -z+3/4'
  9  'z, x, y'
  10  'z+1/4, -y+1/4, x+3/4'
  11  'z+1/2, -x+1/2, -y'
  12  'z+3/4, y+1/4, -x+1/4'
  13  '-z+1/2, x, -y'
  14  '-z+1/4, -y+1/4, -x+1/4'
  15  '-z, -x+1/2, y'
  16  '-z+3/4, y+1/4, x+3/4'
  17  'y, z, x'
  18  'x+3/4, z+1/4, -y+1/4'
  19  '-y, z+1/2, -x+1/2'
  20  '-x+1/4, z+3/4, y+1/4'
  21  '-y, -z+1/2, x'
  22  '-x+1/4, -z+1/4, -y+1/4'
  23  'y, -z, -x+1/2'
  24  'x+3/4, -z+3/4, y+1/4'
  25  'x+1/2, y+1/2, z+1/2'
  26  '-y+3/4, x+1/4, z+3/4'
  27  '-x, -y+1/2, z'
  28  'y+3/4, -x+3/4, z+1/4'
  29  'x+1/2, -y+1/2, -z'
  30  '-y+3/4, -x+3/4, -z+3/4'
  31  '-x, y+1/2, -z+1/2'
  32  'y+3/4, x+1/4, -z+1/4'
  33  'z+1/2, x+1/2, y+1/2'
  34  'z+3/4, -y+3/4, x+1/4'
  35  'z, -x, -y+1/2'
  36  'z+1/4, y+3/4, -x+3/4'
  37  '-z, x+1/2, -y+1/2'
  38  '-z+3/4, -y+3/4, -x+3/4'
  39  '-z+1/2, -x, y+1/2'
  40  '-z+1/4, y+3/4, x+1/4'
  41  'y+1/2, z+1/2, x+1/2'
  42  'x+1/4, z+3/4, -y+3/4'
  43  '-y+1/2, z, -x'
  44  '-x+3/4, z+1/4, y+3/4'
  45  '-y+1/2, -z, x+1/2'
  46  '-x+3/4, -z+3/4, -y+3/4'
  47  'y+1/2, -z+1/2, -x'
  48  'x+1/4, -z+1/4, y+3/4'
loop_
 _atom_site_type_symbol
 _atom_site_label
 _atom_site_symmetry_multiplicity
 _atom_site_fract_x
 _atom_site_fract_y
 _atom_site_fract_z
 _atom_site_occupancy
  Cu  Cu0  16  0.06305303  0.43694697  0.56305303  1
  Au  Au1  16  0.06219910  0.06219910  0.06219910  1
# generated using pymatgen
data_ID_1
_symmetry_space_group_name_H-M   P3m1
_cell_length_a   7.84371568
_cell_length_b   7.84371568
_cell_length_c   6.99162777
_cell_angle_alpha   90.00000000
_cell_angle_beta   90.00000000
_cell_angle_gamma   120.00000000
_symmetry_Int_Tables_number   156
_chemical_formula_structural   CuAu
_cell_volume   372.52259163
_cell_formula_units_Z   8
loop_
 _symmetry_equiv_pos_site_id
 _symmetry_equiv_pos_as_xyz
  1  'x, y, z'
  2  '-y, x-y, z'
  3  '-x+y, -x, z'
  4  '-y, -x, z'
  5  '-x+y, y, z'
  6  'x, x-y, z'
loop_
 _atom_site_type_symbol
 _atom_site_label
 _atom_site_symmetry_multiplicity
 _atom_site_fract_x
 _atom_site_fract_y
 _atom_site_fract_z
 _atom_site_occupancy
  Cu  Cu0  3  0.00350448  0.50175224  0.95752700  1
  Cu  Cu1  1  0.00000000  0.00000000  0.11648158  1
  Cu  Cu2  1  0.00000000  0.00000000  0.45044825  1
  Cu  Cu3  1  0.00000000  0.00000000  0.78436042  1
  Cu  Cu4  1  0.33333333  0.66666667  0.16085507  1
  Cu  Cu5  1  0.66666667  0.33333333  0.79505417  1
  Au  Au6  6  0.00165181  0.33041714  0.28270550  1
  Au  Au7  1  0.33333333  0.66666667  0.79850854  1
  Au  Au8  1  0.66666667  0.33333333  0.15390675  1
# generated using pymatgen
data_ID_2
_symmetry_space_group_name_H-M   I4/mmm
_cell_length_a   9.14273069
_cell_length_b   9.14273069
_cell_length_c   4.79242378
_cell_angle_alpha   90.00000000
_cell_angle_beta   90.00000000
_cell_angle_gamma   90.00000000
_symmetry_Int_Tables_number   139
_chemical_formula_structural   CuAu
_cell_volume   400.59642514
_cell_formula_units_Z   8
loop_
 _symmetry_equiv_pos_site_id
 _symmetry_equiv_pos_as_xyz
  1  'x, y, z'
  2  '-x, -y, -z'
  3  '-y, x, z'
  4  'y, -x, -z'
  5  '-x, -y, z'
  6  'x, y, -z'
  7  'y, -x, z'
  8  '-y, x, -z'
  9  'x, -y, -z'
  10  '-x, y, z'
  11  '-y, -x, -z'
  12  'y, x, z'
  13  '-x, y, -z'
  14  'x, -y, z'
  15  'y, x, -z'
  16  '-y, -x, z'
  17  'x+1/2, y+1/2, z+1/2'
  18  '-x+1/2, -y+1/2, -z+1/2'
  19  '-y+1/2, x+1/2, z+1/2'
  20  'y+1/2, -x+1/2, -z+1/2'
  21  '-x+1/2, -y+1/2, z+1/2'
  22  'x+1/2, y+1/2, -z+1/2'
  23  'y+1/2, -x+1/2, z+1/2'
  24  '-y+1/2, x+1/2, -z+1/2'
  25  'x+1/2, -y+1/2, -z+1/2'
  26  '-x+1/2, y+1/2, z+1/2'
  27  '-y+1/2, -x+1/2, -z+1/2'
  28  'y+1/2, x+1/2, z+1/2'
  29  '-x+1/2, y+1/2, -z+1/2'
  30  'x+1/2, -y+1/2, z+1/2'
  31  'y+1/2, x+1/2, -z+1/2'
  32  '-y+1/2, -x+1/2, z+1/2'
loop_
 _atom_site_type_symbol
 _atom_site_label
 _atom_site_symmetry_multiplicity
 _atom_site_fract_x
 _atom_site_fract_y
 _atom_site_fract_z
 _atom_site_occupancy
  Cu  Cu0  4  0.00000000  0.50000000  0.25000000  1
  Cu  Cu1  2  0.00000000  0.00000000  0.00000000  1
  Cu  Cu2  2  0.00000000  0.00000000  0.50000000  1
  Au  Au3  8  0.00000000  0.26043883  0.00000000  1
# generated using pymatgen
data_ID_3
_symmetry_space_group_name_H-M   Pm-3m
_cell_length_a   7.26345006
_cell_length_b   7.26345006
_cell_length_c   7.26345006
_cell_angle_alpha   90.00000000
_cell_angle_beta   90.00000000
_cell_angle_gamma   90.00000000
_symmetry_Int_Tables_number   221
_chemical_formula_structural   CuAu
_cell_volume   383.20296851
_cell_formula_units_Z   8
loop_
 _symmetry_equiv_pos_site_id
 _symmetry_equiv_pos_as_xyz
  1  'x, y, z'
  2  '-x, -y, -z'
  3  '-y, x, z'
  4  'y, -x, -z'
  5  '-x, -y, z'
  6  'x, y, -z'
  7  'y, -x, z'
  8  '-y, x, -z'
  9  'x, -y, -z'
  10  '-x, y, z'
  11  '-y, -x, -z'
  12  'y, x, z'
  13  '-x, y, -z'
  14  'x, -y, z'
  15  'y, x, -z'
  16  '-y, -x, z'
  17  'z, x, y'
  18  '-z, -x, -y'
  19  'z, -y, x'
  20  '-z, y, -x'
  21  'z, -x, -y'
  22  '-z, x, y'
  23  'z, y, -x'
  24  '-z, -y, x'
  25  '-z, x, -y'
  26  'z, -x, y'
  27  '-z, -y, -x'
  28  'z, y, x'
  29  '-z, -x, y'
  30  'z, x, -y'
  31  '-z, y, x'
  32  'z, -y, -x'
  33  'y, z, x'
  34  '-y, -z, -x'
  35  'x, z, -y'
  36  '-x, -z, y'
  37  '-y, z, -x'
  38  'y, -z, x'
  39  '-x, z, y'
  40  'x, -z, -y'
  41  '-y, -z, x'
  42  'y, z, -x'
  43  '-x, -z, -y'
  44  'x, z, y'
  45  'y, -z, -x'
  46  '-y, z, x'
  47  'x, -z, y'
  48  '-x, z, -y'
loop_
 _atom_site_type_symbol
 _atom_site_label
 _atom_site_symmetry_multiplicity
 _atom_site_fract_x
 _atom_site_fract_y
 _atom_site_fract_z
 _atom_site_occupancy
  Cu  Cu0  8  0.29886787  0.29886787  0.29886787  1
  Au  Au1  6  0.00000000  0.00000000  0.33593310  1
  Au  Au2  1  0.00000000  0.00000000  0.00000000  1
  Au  Au3  1  0.50000000  0.50000000  0.50000000  1
# generated using pymatgen
data_ID_4
_symmetry_space_group_name_H-M   I4_1md
_cell_length_a   5.17033559
_cell_length_b   5.17033559
_cell_length_c   18.34615177
_cell_angle_alpha   90.00000000
_cell_angle_beta   90.00000000
_cell_angle_gamma   90.00000000
_symmetry_Int_Tables_number   109
_chemical_formula_structural   CuAu
_cell_volume   490.43611835
_cell_formula_units_Z   16
loop_
 _symmetry_equiv_pos_site_id
 _symmetry_equiv_pos_as_xyz
  1  'x, y, z'
  2  '-y, x+1/2, z+1/4'
  3  '-x+1/2, -y+1/2, z+1/2'
  4  'y+1/2, -x, z+3/4'
  5  '-x, y, z'
  6  'y, x+1/2, z+1/4'
  7  'x+1/2, -y+1/2, z+1/2'
  8  '-y+1/2, -x, z+3/4'
  9  'x+1/2, y+1/2, z+1/2'
  10  '-y+1/2, x, z+3/4'
  11  '-x, -y, z'
  12  'y, -x+1/2, z+1/4'
  13  '-x+1/2, y+1/2, z+1/2'
  14  'y+1/2, x, z+3/4'
  15  'x, -y, z'
  16  '-y, -x+1/2, z+1/4'
loop_
 _atom_site_type_symbol
 _atom_site_label
 _atom_site_symmetry_multiplicity
 _atom_site_fract_x
 _atom_site_fract_y
 _atom_site_fract_z
 _atom_site_occupancy
  Cu  Cu0  8  0.00000000  0.24647276  0.73534827  1
  Cu  Cu1  4  0.00000000  0.00000000  0.00215875  1
  Cu  Cu2  4  0.00000000  0.00000000  0.25404513  1
  Au  Au3  8  0.00000000  0.25068327  0.37881034  1
  Au  Au4  4  0.00000000  0.00000000  0.60824157  1
  Au  Au5  4  0.00000000  0.00000000  0.86205879  1
# generated using pymatgen
data_ID_5
_symmetry_space_group_name_H-M   P-62c
_cell_length_a   8.23174813
_cell_length_b   8.23174813
_cell_length_c   4.32501431
_cell_angle_alpha   90.00000000
_cell_angle_beta   90.00000000
_cell_angle_gamma   120.00000000
_symmetry_Int_Tables_number   190
_chemical_formula_structural   CuAu
_cell_volume   253.80625896
_cell_formula_units_Z   8
loop_
 _symmetry_equiv_pos_site_id
 _symmetry_equiv_pos_as_xyz
  1  'x, y, z'
  2  '-x+y, -x, -z+1/2'
  3  '-y, x-y, z'
  4  'x, y, -z+1/2'
  5  '-x+y, -x, z'
  6  '-y, x-y, -z+1/2'
  7  'y, x, z+1/2'
  8  '-x, -x+y, -z'
  9  'x-y, -y, z+1/2'
  10  'y, x, -z'
  11  '-x, -x+y, z+1/2'
  12  'x-y, -y, -z'
loop_
 _atom_site_type_symbol
 _atom_site_label
 _atom_site_symmetry_multiplicity
 _atom_site_fract_x
 _atom_site_fract_y
 _atom_site_fract_z
 _atom_site_occupancy
  Cu  Cu0  6  0.10323651  0.51895496  0.75000000  1
  Cu  Cu1  2  0.00000000  0.00000000  0.00000000  1
  Au  Au2  6  0.12542121  0.81030272  0.25000000  1
  Au  Au3  2  0.33333333  0.66666667  0.25000000  1
# generated using pymatgen
data_ID_6
_symmetry_space_group_name_H-M   Pm-3m
_cell_length_a   3.02786167
_cell_length_b   3.02786167
_cell_length_c   3.02786167
_cell_angle_alpha   90.00000000
_cell_angle_beta   90.00000000
_cell_angle_gamma   90.00000000
_symmetry_Int_Tables_number   221
_chemical_formula_structural   CuAu
_cell_volume   27.75927310
_cell_formula_units_Z   1
loop_
 _symmetry_equiv_pos_site_id
 _symmetry_equiv_pos_as_xyz
  1  'x, y, z'
  2  '-x, -y, -z'
  3  '-y, x, z'
  4  'y, -x, -z'
  5  '-x, -y, z'
  6  'x, y, -z'
  7  'y, -x, z'
  8  '-y, x, -z'
  9  'x, -y, -z'
  10  '-x, y, z'
  11  '-y, -x, -z'
  12  'y, x, z'
  13  '-x, y, -z'
  14  'x, -y, z'
  15  'y, x, -z'
  16  '-y, -x, z'
  17  'z, x, y'
  18  '-z, -x, -y'
  19  'z, -y, x'
  20  '-z, y, -x'
  21  'z, -x, -y'
  22  '-z, x, y'
  23  'z, y, -x'
  24  '-z, -y, x'
  25  '-z, x, -y'
  26  'z, -x, y'
  27  '-z, -y, -x'
  28  'z, y, x'
  29  '-z, -x, y'
  30  'z, x, -y'
  31  '-z, y, x'
  32  'z, -y, -x'
  33  'y, z, x'
  34  '-y, -z, -x'
  35  'x, z, -y'
  36  '-x, -z, y'
  37  '-y, z, -x'
  38  'y, -z, x'
  39  '-x, z, y'
  40  'x, -z, -y'
  41  '-y, -z, x'
  42  'y, z, -x'
  43  '-x, -z, -y'
  44  'x, z, y'
  45  'y, -z, -x'
  46  '-y, z, x'
  47  'x, -z, y'
  48  '-x, z, -y'
loop_
 _atom_site_type_symbol
 _atom_site_label
 _atom_site_symmetry_multiplicity
 _atom_site_fract_x
 _atom_site_fract_y
 _atom_site_fract_z
 _atom_site_occupancy
  Cu  Cu0  1  0.00000000  0.00000000  0.00000000  1
  Au  Au1  1  0.50000000  0.50000000  0.50000000  1
# generated using pymatgen
data_ID_7
_symmetry_space_group_name_H-M   C222
_cell_length_a   8.80432132
_cell_length_b   9.25530553
_cell_length_c   7.26223766
_cell_angle_alpha   90.00000000
_cell_angle_beta   90.00000000
_cell_angle_gamma   90.00000000
_symmetry_Int_Tables_number   21
_chemical_formula_structural   CuAu
_cell_volume   591.77566424
_cell_formula_units_Z   16
loop_
 _symmetry_equiv_pos_site_id
 _symmetry_equiv_pos_as_xyz
  1  'x, y, z'
  2  '-x, -y, z'
  3  'x, -y, -z'
  4  '-x, y, -z'
  5  'x+1/2, y+1/2, z'
  6  '-x+1/2, -y+1/2, z'
  7  'x+1/2, -y+1/2, -z'
  8  '-x+1/2, y+1/2, -z'
loop_
 _atom_site_type_symbol
 _atom_site_label
 _atom_site_symmetry_multiplicity
 _atom_site_fract_x
 _atom_site_fract_y
 _atom_site_fract_z
 _atom_site_occupancy
  Cu  Cu0  8  0.24557530  0.39354056  0.38846393  1
  Cu  Cu1  4  0.00000000  0.00000000  0.32586097  1
  Cu  Cu2  2  0.00000000  0.00000000  0.00000000  1
  Cu  Cu3  2  0.00000000  0.50000000  0.50000000  1
  Au  Au4  8  0.09726240  0.24750376  0.13919325  1
  Au  Au5  4  0.00000000  0.23602299  0.50000000  1
  Au  Au6  4  0.21568004  0.50000000  0.00000000  1
# generated using pymatgen
data_ID_8
_symmetry_space_group_name_H-M   Cmmm
_cell_length_a   5.40607558
_cell_length_b   9.01309934
_cell_length_c   2.62690677
_cell_angle_alpha   90.00000000
_cell_angle_beta   90.00000000
_cell_angle_gamma   90.00000000
_symmetry_Int_Tables_number   65
_chemical_formula_structural   CuAu
_cell_volume   127.99733584
_cell_formula_units_Z   4
loop_
 _symmetry_equiv_pos_site_id
 _symmetry_equiv_pos_as_xyz
  1  'x, y, z'
  2  '-x, -y, -z'
  3  '-x, -y, z'
  4  'x, y, -z'
  5  'x, -y, -z'
  6  '-x, y, z'
  7  '-x, y, -z'
  8  'x, -y, z'
  9  'x+1/2, y+1/2, z'
  10  '-x+1/2, -y+1/2, -z'
  11  '-x+1/2, -y+1/2, z'
  12  'x+1/2, y+1/2, -z'
  13  'x+1/2, -y+1/2, -z'
  14  '-x+1/2, y+1/2, z'
  15  '-x+1/2, y+1/2, -z'
  16  'x+1/2, -y+1/2, z'
loop_
 _atom_site_type_symbol
 _atom_site_label
 _atom_site_symmetry_multiplicity
 _atom_site_fract_x
 _atom_site_fract_y
 _atom_site_fract_z
 _atom_site_occupancy
  Cu  Cu0  4  0.24944030  0.00000000  0.00000000  1
  Au  Au1  4  0.00000000  0.25027257  0.00000000  1
# generated using pymatgen
data_ID_9
_symmetry_space_group_name_H-M   P4_132
_cell_length_a   7.00002368
_cell_length_b   7.00002368
_cell_length_c   7.00002368
_cell_angle_alpha   90.00000000
_cell_angle_beta   90.00000000
_cell_angle_gamma   90.00000000
_symmetry_Int_Tables_number   213
_chemical_formula_structural   CuAu
_cell_volume   343.00348034
_cell_formula_units_Z   8
loop_
 _symmetry_equiv_pos_site_id
 _symmetry_equiv_pos_as_xyz
  1  'x, y, z'
  2  '-y+1/4, x+3/4, z+1/4'
  3  '-x+1/2, -y, z+1/2'
  4  'y+1/4, -x+1/4, z+3/4'
  5  'x+1/2, -y+1/2, -z'
  6  '-y+3/4, -x+3/4, -z+3/4'
  7  '-x, y+1/2, -z+1/2'
  8  'y+3/4, x+1/4, -z+1/4'
  9  'z, x, y'
  10  'z+1/4, -y+1/4, x+3/4'
  11  'z+1/2, -x+1/2, -y'
  12  'z+3/4, y+1/4, -x+1/4'
  13  '-z, x+1/2, -y+1/2'
  14  '-z+3/4, -y+3/4, -x+3/4'
  15  '-z+1/2, -x, y+1/2'
  16  '-z+1/4, y+3/4, x+1/4'
  17  'y, z, x'
  18  'x+3/4, z+1/4, -y+1/4'
  19  '-y, z+1/2, -x+1/2'
  20  '-x+1/4, z+3/4, y+1/4'
  21  '-y+1/2, -z, x+1/2'
  22  '-x+3/4, -z+3/4, -y+3/4'
  23  'y+1/2, -z+1/2, -x'
  24  'x+1/4, -z+1/4, y+3/4'
loop_
 _atom_site_type_symbol
 _atom_site_label
 _atom_site_symmetry_multiplicity
 _atom_site_fract_x
 _atom_site_fract_y
 _atom_site_fract_z
 _atom_site_occupancy
  Cu  Cu0  4  0.12500000  0.37500000  0.62500000  1
  Cu  Cu1  4  0.12500000  0.62500000  0.87500000  1
  Au  Au2  8  0.08169928  0.08169928  0.08169928  1
# generated using pymatgen
data_ID_10
_symmetry_space_group_name_H-M   C2/m
_cell_length_a   8.22602475
_cell_length_b   7.31622181
_cell_length_c   9.66035791
_cell_angle_alpha   90.00000000
_cell_angle_beta   114.99616913
_cell_angle_gamma   90.00000000
_symmetry_Int_Tables_number   12
_chemical_formula_structural   CuAu
_cell_volume   526.93778714
_cell_formula_units_Z   16
loop_
 _symmetry_equiv_pos_site_id
 _symmetry_equiv_pos_as_xyz
  1  'x, y, z'
  2  '-x, -y, -z'
  3  '-x, y, -z'
  4  'x, -y, z'
  5  'x+1/2, y+1/2, z'
  6  '-x+1/2, -y+1/2, -z'
  7  '-x+1/2, y+1/2, -z'
  8  'x+1/2, -y+1/2, z'
loop_
 _atom_site_type_symbol
 _atom_site_label
 _atom_site_symmetry_multiplicity
 _atom_site_fract_x
 _atom_site_fract_y
 _atom_site_fract_z
 _atom_site_occupancy
  Cu  Cu0  8  0.07073192  0.16017008  0.64357668  1
  Cu  Cu1  4  0.25000000  0.25000000  0.50000000  1
  Cu  Cu2  2  0.00000000  0.00000000  0.00000000  1
  Cu  Cu3  2  0.00000000  0.50000000  0.00000000  1
  Au  Au4  8  0.10154372  0.25382681  0.20541048  1
  Au  Au5  4  0.11265227  0.50000000  0.65311130  1
  Au  Au6  4  0.25000000  0.25000000  0.00000000  1
# generated using pymatgen
data_ID_11
_symmetry_space_group_name_H-M   Pm-3m
_cell_length_a   7.26188503
_cell_length_b   7.26188503
_cell_length_c   7.26188503
_cell_angle_alpha   90.00000000
_cell_angle_beta   90.00000000
_cell_angle_gamma   90.00000000
_symmetry_Int_Tables_number   221
_chemical_formula_structural   CuAu
_cell_volume   382.95531918
_cell_formula_units_Z   8
loop_
 _symmetry_equiv_pos_site_id
 _symmetry_equiv_pos_as_xyz
  1  'x, y, z'
  2  '-x, -y, -z'
  3  '-y, x, z'
  4  'y, -x, -z'
  5  '-x, -y, z'
  6  'x, y, -z'
  7  'y, -x, z'
  8  '-y, x, -z'
  9  'x, -y, -z'
  10  '-x, y, z'
  11  '-y, -x, -z'
  12  'y, x, z'
  13  '-x, y, -z'
  14  'x, -y, z'
  15  'y, x, -z'
  16  '-y, -x, z'
  17  'z, x, y'
  18  '-z, -x, -y'
  19  'z, -y, x'
  20  '-z, y, -x'
  21  'z, -x, -y'
  22  '-z, x, y'
  23  'z, y, -x'
  24  '-z, -y, x'
  25  '-z, x, -y'
  26  'z, -x, y'
  27  '-z, -y, -x'
  28  'z, y, x'
  29  '-z, -x, y'
  30  'z, x, -y'
  31  '-z, y, x'
  32  'z, -y, -x'
  33  'y, z, x'
  34  '-y, -z, -x'
  35  'x, z, -y'
  36  '-x, -z, y'
  37  '-y, z, -x'
  38  'y, -z, x'
  39  '-x, z, y'
  40  'x, -z, -y'
  41  '-y, -z, x'
  42  'y, z, -x'
  43  '-x, -z, -y'
  44  'x, z, y'
  45  'y, -z, -x'
  46  '-y, z, x'
  47  'x, -z, y'
  48  '-x, z, -y'
loop_
 _atom_site_type_symbol
 _atom_site_label
 _atom_site_symmetry_multiplicity
 _atom_site_fract_x
 _atom_site_fract_y
 _atom_site_fract_z
 _atom_site_occupancy
  Cu  Cu0  8  0.29860905  0.29860905  0.29860905  1
  Au  Au1  6  0.00000000  0.00000000  0.33589168  1
  Au  Au2  1  0.00000000  0.00000000  0.00000000  1
  Au  Au3  1  0.50000000  0.50000000  0.50000000  1
# generated using pymatgen
data_ID_12
_symmetry_space_group_name_H-M   C222_1
_cell_length_a   6.51580827
_cell_length_b   11.49379610
_cell_length_c   6.37821204
_cell_angle_alpha   90.00000000
_cell_angle_beta   90.00000000
_cell_angle_gamma   90.00000000
_symmetry_Int_Tables_number   20
_chemical_formula_structural   CuAu
_cell_volume   477.67304874
_cell_formula_units_Z   16
loop_
 _symmetry_equiv_pos_site_id
 _symmetry_equiv_pos_as_xyz
  1  'x, y, z'
  2  '-x, -y, z+1/2'
  3  'x, -y, -z'
  4  '-x, y, -z+1/2'
  5  'x+1/2, y+1/2, z'
  6  '-x+1/2, -y+1/2, z+1/2'
  7  'x+1/2, -y+1/2, -z'
  8  '-x+1/2, y+1/2, -z+1/2'
loop_
 _atom_site_type_symbol
 _atom_site_label
 _atom_site_symmetry_multiplicity
 _atom_site_fract_x
 _atom_site_fract_y
 _atom_site_fract_z
 _atom_site_occupancy
  Cu  Cu0  8  0.13601229  0.08779460  0.61999412  1
  Cu  Cu1  8  0.21343964  0.23090513  0.95809992  1
  Au  Au2  4  0.00000000  0.13471372  0.25000000  1
  Au  Au3  4  0.00000000  0.37390110  0.25000000  1
  Au  Au4  4  0.00000000  0.37666623  0.75000000  1
  Au  Au5  4  0.23628824  0.00000000  0.00000000  1
# generated using pymatgen
data_ID_13
_symmetry_space_group_name_H-M   Pmmm
_cell_length_a   2.98911842
_cell_length_b   3.01583819
_cell_length_c   3.07585439
_cell_angle_alpha   90.00000000
_cell_angle_beta   90.00000000
_cell_angle_gamma   90.00000000
_symmetry_Int_Tables_number   47
_chemical_formula_structural   CuAu
_cell_volume   27.72789687
_cell_formula_units_Z   1
loop_
 _symmetry_equiv_pos_site_id
 _symmetry_equiv_pos_as_xyz
  1  'x, y, z'
  2  '-x, -y, -z'
  3  '-x, -y, z'
  4  'x, y, -z'
  5  'x, -y, -z'
  6  '-x, y, z'
  7  '-x, y, -z'
  8  'x, -y, z'
loop_
 _atom_site_type_symbol
 _atom_site_label
 _atom_site_symmetry_multiplicity
 _atom_site_fract_x
 _atom_site_fract_y
 _atom_site_fract_z
 _atom_site_occupancy
  Cu  Cu0  1  0.00000000  0.00000000  0.00000000  1
  Au  Au1  1  0.50000000  0.50000000  0.50000000  1
# generated using pymatgen
data_ID_14
_symmetry_space_group_name_H-M   Pmmn
_cell_length_a   4.19583861
_cell_length_b   7.06994058
_cell_length_c   7.82957884
_cell_angle_alpha   90.00000000
_cell_angle_beta   90.00000000
_cell_angle_gamma   90.00000000
_symmetry_Int_Tables_number   59
_chemical_formula_structural   CuAu
_cell_volume   232.25920752
_cell_formula_units_Z   8
loop_
 _symmetry_equiv_pos_site_id
 _symmetry_equiv_pos_as_xyz
  1  'x, y, z'
  2  '-x, -y, z'
  3  'x+1/2, -y+1/2, -z'
  4  '-x+1/2, y+1/2, -z'
  5  '-x+1/2, -y+1/2, -z'
  6  'x+1/2, y+1/2, -z'
  7  '-x, y, z'
  8  'x, -y, z'
loop_
 _atom_site_type_symbol
 _atom_site_label
 _atom_site_symmetry_multiplicity
 _atom_site_fract_x
 _atom_site_fract_y
 _atom_site_fract_z
 _atom_site_occupancy
  Cu  Cu0  4  0.00000000  0.33176149  0.51710997  1
  Cu  Cu1  2  0.00000000  0.00000000  0.34760214  1
  Cu  Cu2  2  0.00000000  0.00000000  0.98243778  1
  Au  Au3  4  0.00000000  0.30658318  0.16389459  1
  Au  Au4  2  0.00000000  0.00000000  0.66473606  1
  Au  Au5  2  0.00000000  0.50000000  0.83412443  1
# generated using pymatgen
data_ID_15
_symmetry_space_group_name_H-M   Pm-3m
_cell_length_a   5.17571929
_cell_length_b   5.17571929
_cell_length_c   5.17571929
_cell_angle_alpha   90.00000000
_cell_angle_beta   90.00000000
_cell_angle_gamma   90.00000000
_symmetry_Int_Tables_number   221
_chemical_formula_structural   CuAu
_cell_volume   138.64753161
_cell_formula_units_Z   4
loop_
 _symmetry_equiv_pos_site_id
 _symmetry_equiv_pos_as_xyz
  1  'x, y, z'
  2  '-x, -y, -z'
  3  '-y, x, z'
  4  'y, -x, -z'
  5  '-x, -y, z'
  6  'x, y, -z'
  7  'y, -x, z'
  8  '-y, x, -z'
  9  'x, -y, -z'
  10  '-x, y, z'
  11  '-y, -x, -z'
  12  'y, x, z'
  13  '-x, y, -z'
  14  'x, -y, z'
  15  'y, x, -z'
  16  '-y, -x, z'
  17  'z, x, y'
  18  '-z, -x, -y'
  19  'z, -y, x'
  20  '-z, y, -x'
  21  'z, -x, -y'
  22  '-z, x, y'
  23  'z, y, -x'
  24  '-z, -y, x'
  25  '-z, x, -y'
  26  'z, -x, y'
  27  '-z, -y, -x'
  28  'z, y, x'
  29  '-z, -x, y'
  30  'z, x, -y'
  31  '-z, y, x'
  32  'z, -y, -x'
  33  'y, z, x'
  34  '-y, -z, -x'
  35  'x, z, -y'
  36  '-x, -z, y'
  37  '-y, z, -x'
  38  'y, -z, x'
  39  '-x, z, y'
  40  'x, -z, -y'
  41  '-y, -z, x'
  42  'y, z, -x'
  43  '-x, -z, -y'
  44  'x, z, y'
  45  'y, -z, -x'
  46  '-y, z, x'
  47  'x, -z, y'
  48  '-x, z, -y'
loop_
 _atom_site_type_symbol
 _atom_site_label
 _atom_site_symmetry_multiplicity
 _atom_site_fract_x
 _atom_site_fract_y
 _atom_site_fract_z
 _atom_site_occupancy
  Cu  Cu0  3  0.00000000  0.00000000  0.50000000  1
  Cu  Cu1  1  0.00000000  0.00000000  0.00000000  1
  Au  Au2  3  0.00000000  0.50000000  0.50000000  1
  Au  Au3  1  0.50000000  0.50000000  0.50000000  1
# generated using pymatgen
data_ID_16
_symmetry_space_group_name_H-M   P6mm
_cell_length_a   6.46401981
_cell_length_b   6.46401981
_cell_length_c   10.39577197
_cell_angle_alpha   90.00000000
_cell_angle_beta   90.00000000
_cell_angle_gamma   120.00000000
_symmetry_Int_Tables_number   183
_chemical_formula_structural   CuAu
_cell_volume   376.17742846
_cell_formula_units_Z   8
loop_
 _symmetry_equiv_pos_site_id
 _symmetry_equiv_pos_as_xyz
  1  'x, y, z'
  2  'x-y, x, z'
  3  '-y, x-y, z'
  4  '-x, -y, z'
  5  '-x+y, -x, z'
  6  'y, -x+y, z'
  7  'y, x, z'
  8  'x, x-y, z'
  9  'x-y, -y, z'
  10  '-y, -x, z'
  11  '-x, -x+y, z'
  12  '-x+y, y, z'
loop_
 _atom_site_type_symbol
 _atom_site_label
 _atom_site_symmetry_multiplicity
 _atom_site_fract_x
 _atom_site_fract_y
 _atom_site_fract_z
 _atom_site_occupancy
  Cu  Cu0  6  0.20849027  0.79150973  0.64873042  1
  Cu  Cu1  2  0.33333333  0.66666667  0.44844167  1
  Au  Au2  3  0.00000000  0.50000000  0.04104848  1
  Au  Au3  3  0.00000000  0.50000000  0.28350076  1
  Au  Au4  2  0.33333333  0.66666667  0.85921385  1
# generated using pymatgen
data_ID_17
_symmetry_space_group_name_H-M   P31c
_cell_length_a   7.12219983
_cell_length_b   7.12219983
_cell_length_c   5.31947234
_cell_angle_alpha   90.00000000
_cell_angle_beta   90.00000000
_cell_angle_gamma   120.00000000
_symmetry_Int_Tables_number   159
_chemical_formula_structural   CuAu
_cell_volume   233.68320249
_cell_formula_units_Z   8
loop_
 _symmetry_equiv_pos_site_id
 _symmetry_equiv_pos_as_xyz
  1  'x, y, z'
  2  '-y, x-y, z'
  3  '-x+y, -x, z'
  4  'y, x, z+1/2'
  5  'x-y, -y, z+1/2'
  6  '-x, -x+y, z+1/2'
loop_
 _atom_site_type_symbol
 _atom_site_label
 _atom_site_symmetry_multiplicity
 _atom_site_fract_x
 _atom_site_fract_y
 _atom_site_fract_z
 _atom_site_occupancy
  Cu  Cu0  6  0.05807886  0.34546677  0.65276843  1
  Cu  Cu1  2  0.33333333  0.66666667  0.37409192  1
  Au  Au2  6  0.08331174  0.66115909  0.99002883  1
  Au  Au3  2  0.00000000  0.00000000  0.39022116  1
# generated using pymatgen
data_ID_18
_symmetry_space_group_name_H-M   P4/mmm
_cell_length_a   3.06126034
_cell_length_b   3.06126034
_cell_length_c   2.96104724
_cell_angle_alpha   90.00000000
_cell_angle_beta   90.00000000
_cell_angle_gamma   90.00000000
_symmetry_Int_Tables_number   123
_chemical_formula_structural   CuAu
_cell_volume   27.74890614
_cell_formula_units_Z   1
loop_
 _symmetry_equiv_pos_site_id
 _symmetry_equiv_pos_as_xyz
  1  'x, y, z'
  2  '-x, -y, -z'
  3  '-y, x, z'
  4  'y, -x, -z'
  5  '-x, -y, z'
  6  'x, y, -z'
  7  'y, -x, z'
  8  '-y, x, -z'
  9  'x, -y, -z'
  10  '-x, y, z'
  11  '-y, -x, -z'
  12  'y, x, z'
  13  '-x, y, -z'
  14  'x, -y, z'
  15  'y, x, -z'
  16  '-y, -x, z'
loop_
 _atom_site_type_symbol
 _atom_site_label
 _atom_site_symmetry_multiplicity
 _atom_site_fract_x
 _atom_site_fract_y
 _atom_site_fract_z
 _atom_site_occupancy
  Cu  Cu0  1  0.00000000  0.00000000  0.00000000  1
  Au  Au1  1  0.50000000  0.50000000  0.50000000  1
# generated using pymatgen
data_ID_19
_symmetry_space_group_name_H-M   P4/mmm
_cell_length_a   2.79816853
_cell_length_b   2.79816853
_cell_length_c   3.57217437
_cell_angle_alpha   90.00000000
_cell_angle_beta   90.00000000
_cell_angle_gamma   90.00000000
_symmetry_Int_Tables_number   123
_chemical_formula_structural   CuAu
_cell_volume   27.96922199
_cell_formula_units_Z   1
loop_
 _symmetry_equiv_pos_site_id
 _symmetry_equiv_pos_as_xyz
  1  'x, y, z'
  2  '-x, -y, -z'
  3  '-y, x, z'
  4  'y, -x, -z'
  5  '-x, -y, z'
  6  'x, y, -z'
  7  'y, -x, z'
  8  '-y, x, -z'
  9  'x, -y, -z'
  10  '-x, y, z'
  11  '-y, -x, -z'
  12  'y, x, z'
  13  '-x, y, -z'
  14  'x, -y, z'
  15  'y, x, -z'
  16  '-y, -x, z'
loop_
 _atom_site_type_symbol
 _atom_site_label
 _atom_site_symmetry_multiplicity
 _atom_site_fract_x
 _atom_site_fract_y
 _atom_site_fract_z
 _atom_site_occupancy
  Cu  Cu0  1  0.00000000  0.00000000  0.00000000  1
  Au  Au1  1  0.50000000  0.50000000  0.50000000  1
# generated using pymatgen
data_ID_20
_symmetry_space_group_name_H-M   P4/nmm
_cell_length_a   2.81045105
_cell_length_b   2.81045105
_cell_length_c   7.15229348
_cell_angle_alpha   90.00000000
_cell_angle_beta   90.00000000
_cell_angle_gamma   90.00000000
_symmetry_Int_Tables_number   129
_chemical_formula_structural   CuAu
_cell_volume   56.49335637
_cell_formula_units_Z   2
loop_
 _symmetry_equiv_pos_site_id
 _symmetry_equiv_pos_as_xyz
  1  'x, y, z'
  2  '-y+1/2, x+1/2, z'
  3  '-x, -y, z'
  4  'y+1/2, -x+1/2, z'
  5  'x+1/2, -y+1/2, -z'
  6  '-y, -x, -z'
  7  '-x+1/2, y+1/2, -z'
  8  'y, x, -z'
  9  '-x+1/2, -y+1/2, -z'
  10  'y, -x, -z'
  11  'x+1/2, y+1/2, -z'
  12  '-y, x, -z'
  13  '-x, y, z'
  14  'y+1/2, x+1/2, z'
  15  'x, -y, z'
  16  '-y+1/2, -x+1/2, z'
loop_
 _atom_site_type_symbol
 _atom_site_label
 _atom_site_symmetry_multiplicity
 _atom_site_fract_x
 _atom_site_fract_y
 _atom_site_fract_z
 _atom_site_occupancy
  Cu  Cu0  2  0.00000000  0.50000000  0.10754237  1
  Au  Au1  2  0.00000000  0.50000000  0.64552944  1
# generated using pymatgen
data_ID_21
_symmetry_space_group_name_H-M   I-43d
_cell_length_a   10.89665499
_cell_length_b   10.89665499
_cell_length_c   10.89665499
_cell_angle_alpha   90.00000000
_cell_angle_beta   90.00000000
_cell_angle_gamma   90.00000000
_symmetry_Int_Tables_number   220
_chemical_formula_structural   CuAu
_cell_volume   1293.83710491
_cell_formula_units_Z   16
loop_
 _symmetry_equiv_pos_site_id
 _symmetry_equiv_pos_as_xyz
  1  'x, y, z'
  2  'y+1/4, -x+3/4, -z+1/4'
  3  '-x, -y+1/2, z'
  4  '-y+3/4, x+3/4, -z+1/4'
  5  'x, -y, -z+1/2'
  6  'y+1/4, x+1/4, z+1/4'
  7  '-x, y+1/2, -z+1/2'
  8  '-y+3/4, -x+1/4, z+1/4'
  9  'z, x, y'
  10  '-z+1/4, y+1/4, -x+3/4'
  11  'z, -x, -y+1/2'
  12  '-z+1/4, -y+3/4, x+3/4'
  13  '-z+1/2, x, -y'
  14  'z+1/4, y+1/4, x+1/4'
  15  '-z+1/2, -x, y+1/2'
  16  'z+1/4, -y+3/4, -x+1/4'
  17  'y, z, x'
  18  '-x+3/4, -z+1/4, y+1/4'
  19  '-y+1/2, z, -x'
  20  'x+3/4, -z+1/4, -y+3/4'
  21  '-y, -z+1/2, x'
  22  'x+1/4, z+1/4, y+1/4'
  23  'y+1/2, -z+1/2, -x'
  24  '-x+1/4, z+1/4, -y+3/4'
  25  'x+1/2, y+1/2, z+1/2'
  26  'y+3/4, -x+1/4, -z+3/4'
  27  '-x+1/2, -y, z+1/2'
  28  '-y+1/4, x+1/4, -z+3/4'
  29  'x+1/2, -y+1/2, -z'
  30  'y+3/4, x+3/4, z+3/4'
  31  '-x+1/2, y, -z'
  32  '-y+1/4, -x+3/4, z+3/4'
  33  'z+1/2, x+1/2, y+1/2'
  34  '-z+3/4, y+3/4, -x+1/4'
  35  'z+1/2, -x+1/2, -y'
  36  '-z+3/4, -y+1/4, x+1/4'
  37  '-z, x+1/2, -y+1/2'
  38  'z+3/4, y+3/4, x+3/4'
  39  '-z, -x+1/2, y'
  40  'z+3/4, -y+1/4, -x+3/4'
  41  'y+1/2, z+1/2, x+1/2'
  42  '-x+1/4, -z+3/4, y+3/4'
  43  '-y, z+1/2, -x+1/2'
  44  'x+1/4, -z+3/4, -y+1/4'
  45  '-y+1/2, -z, x+1/2'
  46  'x+3/4, z+3/4, y+3/4'
  47  'y, -z, -x+1/2'
  48  '-x+3/4, z+3/4, -y+1/4'
loop_
 _atom_site_type_symbol
 _atom_site_label
 _atom_site_symmetry_multiplicity
 _atom_site_fract_x
 _atom_site_fract_y
 _atom_site_fract_z
 _atom_site_occupancy
  Cu  Cu0  16  0.09586682  0.09586682  0.09586682  1
  Au  Au1  16  0.02926162  0.47073838  0.52926162  1
# generated using pymatgen
data_ID_22
_symmetry_space_group_name_H-M   Pm-3n
_cell_length_a   6.80072866
_cell_length_b   6.80072866
_cell_length_c   6.80072866
_cell_angle_alpha   90.00000000
_cell_angle_beta   90.00000000
_cell_angle_gamma   90.00000000
_symmetry_Int_Tables_number   223
_chemical_formula_structural   CuAu
_cell_volume   314.53309084
_cell_formula_units_Z   8
loop_
 _symmetry_equiv_pos_site_id
 _symmetry_equiv_pos_as_xyz
  1  'x, y, z'
  2  '-x, -y, -z'
  3  '-y+1/2, x+1/2, z+1/2'
  4  'y+1/2, -x+1/2, -z+1/2'
  5  '-x, -y, z'
  6  'x, y, -z'
  7  'y+1/2, -x+1/2, z+1/2'
  8  '-y+1/2, x+1/2, -z+1/2'
  9  'x, -y, -z'
  10  '-x, y, z'
  11  '-y+1/2, -x+1/2, -z+1/2'
  12  'y+1/2, x+1/2, z+1/2'
  13  '-x, y, -z'
  14  'x, -y, z'
  15  'y+1/2, x+1/2, -z+1/2'
  16  '-y+1/2, -x+1/2, z+1/2'
  17  'z, x, y'
  18  '-z, -x, -y'
  19  'z+1/2, -y+1/2, x+1/2'
  20  '-z+1/2, y+1/2, -x+1/2'
  21  'z, -x, -y'
  22  '-z, x, y'
  23  'z+1/2, y+1/2, -x+1/2'
  24  '-z+1/2, -y+1/2, x+1/2'
  25  '-z, x, -y'
  26  'z, -x, y'
  27  '-z+1/2, -y+1/2, -x+1/2'
  28  'z+1/2, y+1/2, x+1/2'
  29  '-z, -x, y'
  30  'z, x, -y'
  31  '-z+1/2, y+1/2, x+1/2'
  32  'z+1/2, -y+1/2, -x+1/2'
  33  'y, z, x'
  34  '-y, -z, -x'
  35  'x+1/2, z+1/2, -y+1/2'
  36  '-x+1/2, -z+1/2, y+1/2'
  37  '-y, z, -x'
  38  'y, -z, x'
  39  '-x+1/2, z+1/2, y+1/2'
  40  'x+1/2, -z+1/2, -y+1/2'
  41  '-y, -z, x'
  42  'y, z, -x'
  43  '-x+1/2, -z+1/2, -y+1/2'
  44  'x+1/2, z+1/2, y+1/2'
  45  'y, -z, -x'
  46  '-y, z, x'
  47  'x+1/2, -z+1/2, y+1/2'
  48  '-x+1/2, z+1/2, -y+1/2'
loop_
 _atom_site_type_symbol
 _atom_site_label
 _atom_site_symmetry_multiplicity
 _atom_site_fract_x
 _atom_site_fract_y
 _atom_site_fract_z
 _atom_site_occupancy
  Cu  Cu0  6  0.00000000  0.50000000  0.25000000  1
  Cu  Cu1  2  0.00000000  0.00000000  0.00000000  1
  Au  Au2  8  0.25000000  0.25000000  0.25000000  1
# generated using pymatgen
data_ID_23
_symmetry_space_group_name_H-M   P6/m
_cell_length_a   8.50000826
_cell_length_b   8.50000826
_cell_length_c   5.16748236
_cell_angle_alpha   90.00000000
_cell_angle_beta   90.00000000
_cell_angle_gamma   120.00000000
_symmetry_Int_Tables_number   175
_chemical_formula_structural   CuAu
_cell_volume   323.33173293
_cell_formula_units_Z   8
loop_
 _symmetry_equiv_pos_site_id
 _symmetry_equiv_pos_as_xyz
  1  'x, y, z'
  2  '-x, -y, -z'
  3  'x-y, x, z'
  4  '-x+y, -x, -z'
  5  '-y, x-y, z'
  6  'y, -x+y, -z'
  7  '-x, -y, z'
  8  'x, y, -z'
  9  '-x+y, -x, z'
  10  'x-y, x, -z'
  11  'y, -x+y, z'
  12  '-y, x-y, -z'
loop_
 _atom_site_type_symbol
 _atom_site_label
 _atom_site_symmetry_multiplicity
 _atom_site_fract_x
 _atom_site_fract_y
 _atom_site_fract_z
 _atom_site_occupancy
  Cu  Cu0  6  0.17159915  0.82776082  0.00000000  1
  Cu  Cu1  2  0.33333333  0.66666667  0.00000000  1
  Au  Au2  6  0.00000000  0.50000000  0.24643536  1
  Au  Au3  1  0.00000000  0.00000000  0.00000000  1
  Au  Au4  1  0.00000000  0.00000000  0.50000000  1
# generated using pymatgen
data_ID_24
_symmetry_space_group_name_H-M   P6_3/mmc
_cell_length_a   8.71080143
_cell_length_b   8.71080143
_cell_length_c   9.80819034
_cell_angle_alpha   90.00000000
_cell_angle_beta   90.00000000
_cell_angle_gamma   120.00000000
_symmetry_Int_Tables_number   194
_chemical_formula_structural   CuAu
_cell_volume   644.51902969
_cell_formula_units_Z   8
loop_
 _symmetry_equiv_pos_site_id
 _symmetry_equiv_pos_as_xyz
  1  'x, y, z'
  2  '-x, -y, -z'
  3  'x-y, x, z+1/2'
  4  '-x+y, -x, -z+1/2'
  5  '-y, x-y, z'
  6  'y, -x+y, -z'
  7  '-x, -y, z+1/2'
  8  'x, y, -z+1/2'
  9  '-x+y, -x, z'
  10  'x-y, x, -z'
  11  'y, -x+y, z+1/2'
  12  '-y, x-y, -z+1/2'
  13  '-y, -x, -z+1/2'
  14  'y, x, z+1/2'
  15  '-x, -x+y, -z'
  16  'x, x-y, z'
  17  '-x+y, y, -z+1/2'
  18  'x-y, -y, z+1/2'
  19  'y, x, -z'
  20  '-y, -x, z'
  21  'x, x-y, -z+1/2'
  22  '-x, -x+y, z+1/2'
  23  'x-y, -y, -z'
  24  '-x+y, y, z'
loop_
 _atom_site_type_symbol
 _atom_site_label
 _atom_site_symmetry_multiplicity
 _atom_site_fract_x
 _atom_site_fract_y
 _atom_site_fract_z
 _atom_site_occupancy
  Cu  Cu0  6  0.00000000  0.50000000  0.00000000  1
  Cu  Cu1  2  0.33333333  0.66666667  0.75000000  1
  Au  Au2  6  0.00430600  0.50215300  0.75000000  1
  Au  Au3  2  0.33333333  0.66666667  0.25000000  1
# generated using pymatgen
data_ID_25
_symmetry_space_group_name_H-M   I4/mcm
_cell_length_a   10.38047097
_cell_length_b   10.38047097
_cell_length_c   9.65959534
_cell_angle_alpha   90.00000000
_cell_angle_beta   90.00000000
_cell_angle_gamma   90.00000000
_symmetry_Int_Tables_number   140
_chemical_formula_structural   CuAu
_cell_volume   1040.86175211
_cell_formula_units_Z   16
loop_
 _symmetry_equiv_pos_site_id
 _symmetry_equiv_pos_as_xyz
  1  'x, y, z'
  2  '-x, -y, -z'
  3  '-y, x, z'
  4  'y, -x, -z'
  5  '-x, -y, z'
  6  'x, y, -z'
  7  'y, -x, z'
  8  '-y, x, -z'
  9  'x, -y, -z+1/2'
  10  '-x, y, z+1/2'
  11  '-y, -x, -z+1/2'
  12  'y, x, z+1/2'
  13  '-x, y, -z+1/2'
  14  'x, -y, z+1/2'
  15  'y, x, -z+1/2'
  16  '-y, -x, z+1/2'
  17  'x+1/2, y+1/2, z+1/2'
  18  '-x+1/2, -y+1/2, -z+1/2'
  19  '-y+1/2, x+1/2, z+1/2'
  20  'y+1/2, -x+1/2, -z+1/2'
  21  '-x+1/2, -y+1/2, z+1/2'
  22  'x+1/2, y+1/2, -z+1/2'
  23  'y+1/2, -x+1/2, z+1/2'
  24  '-y+1/2, x+1/2, -z+1/2'
  25  'x+1/2, -y+1/2, -z'
  26  '-x+1/2, y+1/2, z'
  27  '-y+1/2, -x+1/2, -z'
  28  'y+1/2, x+1/2, z'
  29  '-x+1/2, y+1/2, -z'
  30  'x+1/2, -y+1/2, z'
  31  'y+1/2, x+1/2, -z'
  32  '-y+1/2, -x+1/2, z'
loop_
 _atom_site_type_symbol
 _atom_site_label
 _atom_site_symmetry_multiplicity
 _atom_site_fract_x
 _atom_site_fract_y
 _atom_site_fract_z
 _atom_site_occupancy
  Cu  Cu0  8  0.16827173  0.33172827  0.50000000  1
  Cu  Cu1  4  0.00000000  0.00000000  0.00000000  1
  Cu  Cu2  4  0.00000000  0.50000000  0.25000000  1
  Au  Au3  8  0.16944250  0.33055750  0.00000000  1
  Au  Au4  4  0.00000000  0.00000000  0.25000000  1
  Au  Au5  4  0.00000000  0.50000000  0.00000000  1
# generated using pymatgen
data_ID_26
_symmetry_space_group_name_H-M   Pm-3m
_cell_length_a   3.02734232
_cell_length_b   3.02734232
_cell_length_c   3.02734232
_cell_angle_alpha   90.00000000
_cell_angle_beta   90.00000000
_cell_angle_gamma   90.00000000
_symmetry_Int_Tables_number   221
_chemical_formula_structural   CuAu
_cell_volume   27.74499159
_cell_formula_units_Z   1
loop_
 _symmetry_equiv_pos_site_id
 _symmetry_equiv_pos_as_xyz
  1  'x, y, z'
  2  '-x, -y, -z'
  3  '-y, x, z'
  4  'y, -x, -z'
  5  '-x, -y, z'
  6  'x, y, -z'
  7  'y, -x, z'
  8  '-y, x, -z'
  9  'x, -y, -z'
  10  '-x, y, z'
  11  '-y, -x, -z'
  12  'y, x, z'
  13  '-x, y, -z'
  14  'x, -y, z'
  15  'y, x, -z'
  16  '-y, -x, z'
  17  'z, x, y'
  18  '-z, -x, -y'
  19  'z, -y, x'
  20  '-z, y, -x'
  21  'z, -x, -y'
  22  '-z, x, y'
  23  'z, y, -x'
  24  '-z, -y, x'
  25  '-z, x, -y'
  26  'z, -x, y'
  27  '-z, -y, -x'
  28  'z, y, x'
  29  '-z, -x, y'
  30  'z, x, -y'
  31  '-z, y, x'
  32  'z, -y, -x'
  33  'y, z, x'
  34  '-y, -z, -x'
  35  'x, z, -y'
  36  '-x, -z, y'
  37  '-y, z, -x'
  38  'y, -z, x'
  39  '-x, z, y'
  40  'x, -z, -y'
  41  '-y, -z, x'
  42  'y, z, -x'
  43  '-x, -z, -y'
  44  'x, z, y'
  45  'y, -z, -x'
  46  '-y, z, x'
  47  'x, -z, y'
  48  '-x, z, -y'
loop_
 _atom_site_type_symbol
 _atom_site_label
 _atom_site_symmetry_multiplicity
 _atom_site_fract_x
 _atom_site_fract_y
 _atom_site_fract_z
 _atom_site_occupancy
  Cu  Cu0  1  0.50000000  0.50000000  0.50000000  1
  Au  Au1  1  0.00000000  0.00000000  0.00000000  1
# generated using pymatgen
data_ID_27
_symmetry_space_group_name_H-M   P4/mmm
_cell_length_a   2.80059905
_cell_length_b   2.80059905
_cell_length_c   3.56475954
_cell_angle_alpha   90.00000000
_cell_angle_beta   90.00000000
_cell_angle_gamma   90.00000000
_symmetry_Int_Tables_number   123
_chemical_formula_structural   CuAu
_cell_volume   27.95967473
_cell_formula_units_Z   1
loop_
 _symmetry_equiv_pos_site_id
 _symmetry_equiv_pos_as_xyz
  1  'x, y, z'
  2  '-x, -y, -z'
  3  '-y, x, z'
  4  'y, -x, -z'
  5  '-x, -y, z'
  6  'x, y, -z'
  7  'y, -x, z'
  8  '-y, x, -z'
  9  'x, -y, -z'
  10  '-x, y, z'
  11  '-y, -x, -z'
  12  'y, x, z'
  13  '-x, y, -z'
  14  'x, -y, z'
  15  'y, x, -z'
  16  '-y, -x, z'
loop_
 _atom_site_type_symbol
 _atom_site_label
 _atom_site_symmetry_multiplicity
 _atom_site_fract_x
 _atom_site_fract_y
 _atom_site_fract_z
 _atom_site_occupancy
  Cu  Cu0  1  0.50000000  0.50000000  0.50000000  1
  Au  Au1  1  0.00000000  0.00000000  0.00000000  1
# generated using pymatgen
data_ID_28
_symmetry_space_group_name_H-M   P6/mmm
_cell_length_a   8.10524277
_cell_length_b   8.10524277
_cell_length_c   4.56099702
_cell_angle_alpha   90.00000000
_cell_angle_beta   90.00000000
_cell_angle_gamma   120.00000000
_symmetry_Int_Tables_number   191
_chemical_formula_structural   CuAu
_cell_volume   259.49110497
_cell_formula_units_Z   8
loop_
 _symmetry_equiv_pos_site_id
 _symmetry_equiv_pos_as_xyz
  1  'x, y, z'
  2  '-x, -y, -z'
  3  'x-y, x, z'
  4  '-x+y, -x, -z'
  5  '-y, x-y, z'
  6  'y, -x+y, -z'
  7  '-x, -y, z'
  8  'x, y, -z'
  9  '-x+y, -x, z'
  10  'x-y, x, -z'
  11  'y, -x+y, z'
  12  '-y, x-y, -z'
  13  '-y, -x, -z'
  14  'y, x, z'
  15  '-x, -x+y, -z'
  16  'x, x-y, z'
  17  '-x+y, y, -z'
  18  'x-y, -y, z'
  19  'y, x, -z'
  20  '-y, -x, z'
  21  'x, x-y, -z'
  22  '-x, -x+y, z'
  23  'x-y, -y, -z'
  24  '-x+y, y, z'
loop_
 _atom_site_type_symbol
 _atom_site_label
 _atom_site_symmetry_multiplicity
 _atom_site_fract_x
 _atom_site_fract_y
 _atom_site_fract_z
 _atom_site_occupancy
  Cu  Cu0  6  0.18464121  0.36928243  0.00000000  1
  Cu  Cu1  2  0.00000000  0.00000000  0.24900347  1
  Au  Au2  6  0.00000000  0.32687011  0.50000000  1
  Au  Au3  2  0.33333333  0.66666667  0.50000000  1
# generated using pymatgen
data_ID_29
_symmetry_space_group_name_H-M   P6_322
_cell_length_a   6.33867255
_cell_length_b   6.33867255
_cell_length_c   9.34903348
_cell_angle_alpha   90.00000000
_cell_angle_beta   90.00000000
_cell_angle_gamma   120.00000000
_symmetry_Int_Tables_number   182
_chemical_formula_structural   CuAu
_cell_volume   325.30742870
_cell_formula_units_Z   8
loop_
 _symmetry_equiv_pos_site_id
 _symmetry_equiv_pos_as_xyz
  1  'x, y, z'
  2  'x-y, x, z+1/2'
  3  '-y, x-y, z'
  4  '-x, -y, z+1/2'
  5  '-x+y, -x, z'
  6  'y, -x+y, z+1/2'
  7  '-y, -x, -z+1/2'
  8  '-x, -x+y, -z'
  9  '-x+y, y, -z+1/2'
  10  'y, x, -z'
  11  'x, x-y, -z+1/2'
  12  'x-y, -y, -z'
loop_
 _atom_site_type_symbol
 _atom_site_label
 _atom_site_symmetry_multiplicity
 _atom_site_fract_x
 _atom_site_fract_y
 _atom_site_fract_z
 _atom_site_occupancy
  Cu  Cu0  4  0.33333333  0.66666667  0.00307947  1
  Cu  Cu1  2  0.00000000  0.00000000  0.25000000  1
  Cu  Cu2  2  0.33333333  0.66666667  0.25000000  1
  Au  Au3  6  0.00000000  0.23688176  0.00000000  1
  Au  Au4  2  0.33333333  0.66666667  0.75000000  1
# generated using pymatgen
data_ID_30
_symmetry_space_group_name_H-M   Fmmm
_cell_length_a   5.24041486
_cell_length_b   8.79873362
_cell_length_c   10.21477100
_cell_angle_alpha   90.00000000
_cell_angle_beta   90.00000000
_cell_angle_gamma   90.00000000
_symmetry_Int_Tables_number   69
_chemical_formula_structural   CuAu
_cell_volume   470.99302379
_cell_formula_units_Z   16
loop_
 _symmetry_equiv_pos_site_id
 _symmetry_equiv_pos_as_xyz
  1  'x, y, z'
  2  '-x, -y, -z'
  3  '-x, -y, z'
  4  'x, y, -z'
  5  'x, -y, -z'
  6  '-x, y, z'
  7  '-x, y, -z'
  8  'x, -y, z'
  9  'x+1/2, y, z+1/2'
  10  '-x+1/2, -y, -z+1/2'
  11  '-x+1/2, -y, z+1/2'
  12  'x+1/2, y, -z+1/2'
  13  'x+1/2, -y, -z+1/2'
  14  '-x+1/2, y, z+1/2'
  15  '-x+1/2, y, -z+1/2'
  16  'x+1/2, -y, z+1/2'
  17  'x+1/2, y+1/2, z'
  18  '-x+1/2, -y+1/2, -z'
  19  '-x+1/2, -y+1/2, z'
  20  'x+1/2, y+1/2, -z'
  21  'x+1/2, -y+1/2, -z'
  22  '-x+1/2, y+1/2, z'
  23  '-x+1/2, y+1/2, -z'
  24  'x+1/2, -y+1/2, z'
  25  'x, y+1/2, z+1/2'
  26  '-x, -y+1/2, -z+1/2'
  27  '-x, -y+1/2, z+1/2'
  28  'x, y+1/2, -z+1/2'
  29  'x, -y+1/2, -z+1/2'
  30  '-x, y+1/2, z+1/2'
  31  '-x, y+1/2, -z+1/2'
  32  'x, -y+1/2, z+1/2'
loop_
 _atom_site_type_symbol
 _atom_site_label
 _atom_site_symmetry_multiplicity
 _atom_site_fract_x
 _atom_site_fract_y
 _atom_site_fract_z
 _atom_site_occupancy
  Cu  Cu0  8  0.00000000  0.00000000  0.38172644  1
  Cu  Cu1  8  0.00000000  0.25000000  0.25000000  1
  Au  Au2  8  0.00000000  0.00000000  0.12951478  1
  Au  Au3  8  0.25000000  0.25000000  0.00000000  1
# generated using pymatgen
data_ID_31
_symmetry_space_group_name_H-M   P-6m2
_cell_length_a   8.67284608
_cell_length_b   8.67284608
_cell_length_c   6.86561591
_cell_angle_alpha   90.00000000
_cell_angle_beta   90.00000000
_cell_angle_gamma   120.00000000
_symmetry_Int_Tables_number   187
_chemical_formula_structural   CuAu
_cell_volume   447.23255911
_cell_formula_units_Z   8
loop_
 _symmetry_equiv_pos_site_id
 _symmetry_equiv_pos_as_xyz
  1  'x, y, z'
  2  '-x+y, -x, -z'
  3  '-y, x-y, z'
  4  'x, y, -z'
  5  '-x+y, -x, z'
  6  '-y, x-y, -z'
  7  '-y, -x, -z'
  8  'x, x-y, z'
  9  '-x+y, y, -z'
  10  '-y, -x, z'
  11  'x, x-y, -z'
  12  '-x+y, y, z'
loop_
 _atom_site_type_symbol
 _atom_site_label
 _atom_site_symmetry_multiplicity
 _atom_site_fract_x
 _atom_site_fract_y
 _atom_site_fract_z
 _atom_site_occupancy
  Cu  Cu0  3  0.00286888  0.50143444  0.00000000  1
  Cu  Cu1  2  0.66666667  0.33333333  0.33518417  1
  Cu  Cu2  1  0.00000000  0.00000000  0.00000000  1
  Cu  Cu3  1  0.00000000  0.00000000  0.50000000  1
  Cu  Cu4  1  0.33333333  0.66666667  0.00000000  1
  Au  Au5  3  0.16135390  0.32270781  0.50000000  1
  Au  Au6  3  0.51285555  0.02571111  0.50000000  1
  Au  Au7  1  0.33333333  0.66666667  0.50000000  1
  Au  Au8  1  0.66666667  0.33333333  0.00000000  1
# generated using pymatgen
data_ID_32
_symmetry_space_group_name_H-M   P4_2/m
_cell_length_a   6.09631050
_cell_length_b   6.09631050
_cell_length_c   7.00035066
_cell_angle_alpha   90.00000000
_cell_angle_beta   90.00000000
_cell_angle_gamma   90.00000000
_symmetry_Int_Tables_number   84
_chemical_formula_structural   CuAu
_cell_volume   260.16804449
_cell_formula_units_Z   8
loop_
 _symmetry_equiv_pos_site_id
 _symmetry_equiv_pos_as_xyz
  1  'x, y, z'
  2  '-x, -y, -z'
  3  '-y, x, z+1/2'
  4  'y, -x, -z+1/2'
  5  '-x, -y, z'
  6  'x, y, -z'
  7  'y, -x, z+1/2'
  8  '-y, x, -z+1/2'
loop_
 _atom_site_type_symbol
 _atom_site_label
 _atom_site_symmetry_multiplicity
 _atom_site_fract_x
 _atom_site_fract_y
 _atom_site_fract_z
 _atom_site_occupancy
  Cu  Cu0  4  0.09235558  0.69750646  0.50000000  1
  Cu  Cu1  2  0.00000000  0.00000000  0.25000000  1
  Cu  Cu2  2  0.50000000  0.50000000  0.00000000  1
  Au  Au3  8  0.19566062  0.39174952  0.24257409  1
# generated using pymatgen
data_ID_33
_symmetry_space_group_name_H-M   Cmmm
_cell_length_a   7.69192621
_cell_length_b   10.62687798
_cell_length_c   4.86222448
_cell_angle_alpha   90.00000000
_cell_angle_beta   90.00000000
_cell_angle_gamma   90.00000000
_symmetry_Int_Tables_number   65
_chemical_formula_structural   CuAu
_cell_volume   397.44387577
_cell_formula_units_Z   8
loop_
 _symmetry_equiv_pos_site_id
 _symmetry_equiv_pos_as_xyz
  1  'x, y, z'
  2  '-x, -y, -z'
  3  '-x, -y, z'
  4  'x, y, -z'
  5  'x, -y, -z'
  6  '-x, y, z'
  7  '-x, y, -z'
  8  'x, -y, z'
  9  'x+1/2, y+1/2, z'
  10  '-x+1/2, -y+1/2, -z'
  11  '-x+1/2, -y+1/2, z'
  12  'x+1/2, y+1/2, -z'
  13  'x+1/2, -y+1/2, -z'
  14  '-x+1/2, y+1/2, z'
  15  '-x+1/2, y+1/2, -z'
  16  'x+1/2, -y+1/2, z'
loop_
 _atom_site_type_symbol
 _atom_site_label
 _atom_site_symmetry_multiplicity
 _atom_site_fract_x
 _atom_site_fract_y
 _atom_site_fract_z
 _atom_site_occupancy
  Cu  Cu0  4  0.00000000  0.00000000  0.24430659  1
  Cu  Cu1  2  0.00000000  0.50000000  0.00000000  1
  Cu  Cu2  2  0.00000000  0.50000000  0.50000000  1
  Au  Au3  8  0.22732663  0.12924168  0.50000000  1
# generated using pymatgen
data_ID_34
_symmetry_space_group_name_H-M   I4_1/amd
_cell_length_a   13.79695743
_cell_length_b   13.79695743
_cell_length_c   5.12370740
_cell_angle_alpha   90.00000000
_cell_angle_beta   90.00000000
_cell_angle_gamma   90.00000000
_symmetry_Int_Tables_number   141
_chemical_formula_structural   CuAu
_cell_volume   975.32862259
_cell_formula_units_Z   16
loop_
 _symmetry_equiv_pos_site_id
 _symmetry_equiv_pos_as_xyz
  1  'x, y, z'
  2  '-y, x+1/2, z+1/4'
  3  '-x+1/2, -y+1/2, z+1/2'
  4  'y+1/2, -x, z+3/4'
  5  'x, -y+1/2, -z+1/4'
  6  '-y, -x, -z'
  7  '-x+1/2, y, -z+3/4'
  8  'y+1/2, x+1/2, -z+1/2'
  9  '-x, -y+1/2, -z+1/4'
  10  'y, -x, -z'
  11  'x+1/2, y, -z+3/4'
  12  '-y+1/2, x+1/2, -z+1/2'
  13  '-x, y, z'
  14  'y, x+1/2, z+1/4'
  15  'x+1/2, -y+1/2, z+1/2'
  16  '-y+1/2, -x, z+3/4'
  17  'x+1/2, y+1/2, z+1/2'
  18  '-y+1/2, x, z+3/4'
  19  '-x, -y, z'
  20  'y, -x+1/2, z+1/4'
  21  'x+1/2, -y, -z+3/4'
  22  '-y+1/2, -x+1/2, -z+1/2'
  23  '-x, y+1/2, -z+1/4'
  24  'y, x, -z'
  25  '-x+1/2, -y, -z+3/4'
  26  'y+1/2, -x+1/2, -z+1/2'
  27  'x, y+1/2, -z+1/4'
  28  '-y, x, -z'
  29  '-x+1/2, y+1/2, z+1/2'
  30  'y+1/2, x, z+3/4'
  31  'x, -y, z'
  32  '-y, -x+1/2, z+1/4'
loop_
 _atom_site_type_symbol
 _atom_site_label
 _atom_site_symmetry_multiplicity
 _atom_site_fract_x
 _atom_site_fract_y
 _atom_site_fract_z
 _atom_site_occupancy
  Cu  Cu0  16  0.00000000  0.08910037  0.82834548  1
  Au  Au1  8  0.00000000  0.25000000  0.12500000  1
  Au  Au2  8  0.00000000  0.25000000  0.62500000  1
# generated using pymatgen
data_ID_35
_symmetry_space_group_name_H-M   Pm-3m
_cell_length_a   5.17627600
_cell_length_b   5.17627600
_cell_length_c   5.17627600
_cell_angle_alpha   90.00000000
_cell_angle_beta   90.00000000
_cell_angle_gamma   90.00000000
_symmetry_Int_Tables_number   221
_chemical_formula_structural   CuAu
_cell_volume   138.69227626
_cell_formula_units_Z   4
loop_
 _symmetry_equiv_pos_site_id
 _symmetry_equiv_pos_as_xyz
  1  'x, y, z'
  2  '-x, -y, -z'
  3  '-y, x, z'
  4  'y, -x, -z'
  5  '-x, -y, z'
  6  'x, y, -z'
  7  'y, -x, z'
  8  '-y, x, -z'
  9  'x, -y, -z'
  10  '-x, y, z'
  11  '-y, -x, -z'
  12  'y, x, z'
  13  '-x, y, -z'
  14  'x, -y, z'
  15  'y, x, -z'
  16  '-y, -x, z'
  17  'z, x, y'
  18  '-z, -x, -y'
  19  'z, -y, x'
  20  '-z, y, -x'
  21  'z, -x, -y'
  22  '-z, x, y'
  23  'z, y, -x'
  24  '-z, -y, x'
  25  '-z, x, -y'
  26  'z, -x, y'
  27  '-z, -y, -x'
  28  'z, y, x'
  29  '-z, -x, y'
  30  'z, x, -y'
  31  '-z, y, x'
  32  'z, -y, -x'
  33  'y, z, x'
  34  '-y, -z, -x'
  35  'x, z, -y'
  36  '-x, -z, y'
  37  '-y, z, -x'
  38  'y, -z, x'
  39  '-x, z, y'
  40  'x, -z, -y'
  41  '-y, -z, x'
  42  'y, z, -x'
  43  '-x, -z, -y'
  44  'x, z, y'
  45  'y, -z, -x'
  46  '-y, z, x'
  47  'x, -z, y'
  48  '-x, z, -y'
loop_
 _atom_site_type_symbol
 _atom_site_label
 _atom_site_symmetry_multiplicity
 _atom_site_fract_x
 _atom_site_fract_y
 _atom_site_fract_z
 _atom_site_occupancy
  Cu  Cu0  3  0.00000000  0.50000000  0.50000000  1
  Cu  Cu1  1  0.50000000  0.50000000  0.50000000  1
  Au  Au2  3  0.00000000  0.00000000  0.50000000  1
  Au  Au3  1  0.00000000  0.00000000  0.00000000  1
# generated using pymatgen
data_ID_36
_symmetry_space_group_name_H-M   Pmmm
_cell_length_a   2.65725050
_cell_length_b   4.31563546
_cell_length_c   5.16751315
_cell_angle_alpha   90.00000000
_cell_angle_beta   90.00000000
_cell_angle_gamma   90.00000000
_symmetry_Int_Tables_number   47
_chemical_formula_structural   CuAu
_cell_volume   59.25961698
_cell_formula_units_Z   2
loop_
 _symmetry_equiv_pos_site_id
 _symmetry_equiv_pos_as_xyz
  1  'x, y, z'
  2  '-x, -y, -z'
  3  '-x, -y, z'
  4  'x, y, -z'
  5  'x, -y, -z'
  6  '-x, y, z'
  7  '-x, y, -z'
  8  'x, -y, z'
loop_
 _atom_site_type_symbol
 _atom_site_label
 _atom_site_symmetry_multiplicity
 _atom_site_fract_x
 _atom_site_fract_y
 _atom_site_fract_z
 _atom_site_occupancy
  Cu  Cu0  2  0.00000000  0.50000000  0.23569397  1
  Au  Au1  1  0.00000000  0.00000000  0.50000000  1
  Au  Au2  1  0.50000000  0.00000000  0.00000000  1
# generated using pymatgen
data_ID_37
_symmetry_space_group_name_H-M   Fmmm
_cell_length_a   5.46866027
_cell_length_b   7.63733286
_cell_length_c   10.93929156
_cell_angle_alpha   90.00000000
_cell_angle_beta   90.00000000
_cell_angle_gamma   90.00000000
_symmetry_Int_Tables_number   69
_chemical_formula_structural   CuAu
_cell_volume   456.89021934
_cell_formula_units_Z   16
loop_
 _symmetry_equiv_pos_site_id
 _symmetry_equiv_pos_as_xyz
  1  'x, y, z'
  2  '-x, -y, -z'
  3  '-x, -y, z'
  4  'x, y, -z'
  5  'x, -y, -z'
  6  '-x, y, z'
  7  '-x, y, -z'
  8  'x, -y, z'
  9  'x+1/2, y, z+1/2'
  10  '-x+1/2, -y, -z+1/2'
  11  '-x+1/2, -y, z+1/2'
  12  'x+1/2, y, -z+1/2'
  13  'x+1/2, -y, -z+1/2'
  14  '-x+1/2, y, z+1/2'
  15  '-x+1/2, y, -z+1/2'
  16  'x+1/2, -y, z+1/2'
  17  'x+1/2, y+1/2, z'
  18  '-x+1/2, -y+1/2, -z'
  19  '-x+1/2, -y+1/2, z'
  20  'x+1/2, y+1/2, -z'
  21  'x+1/2, -y+1/2, -z'
  22  '-x+1/2, y+1/2, z'
  23  '-x+1/2, y+1/2, -z'
  24  'x+1/2, -y+1/2, z'
  25  'x, y+1/2, z+1/2'
  26  '-x, -y+1/2, -z+1/2'
  27  '-x, -y+1/2, z+1/2'
  28  'x, y+1/2, -z+1/2'
  29  'x, -y+1/2, -z+1/2'
  30  '-x, y+1/2, z+1/2'
  31  '-x, y+1/2, -z+1/2'
  32  'x, -y+1/2, z+1/2'
loop_
 _atom_site_type_symbol
 _atom_site_label
 _atom_site_symmetry_multiplicity
 _atom_site_fract_x
 _atom_site_fract_y
 _atom_site_fract_z
 _atom_site_occupancy
  Cu  Cu0  8  0.00000000  0.00000000  0.11704225  1
  Cu  Cu1  8  0.25000000  0.25000000  0.00000000  1
  Au  Au2  8  0.00000000  0.00000000  0.37815815  1
  Au  Au3  8  0.25000000  0.25000000  0.25000000  1
# generated using pymatgen
data_ID_38
_symmetry_space_group_name_H-M   P-4m2
_cell_length_a   2.70779070
_cell_length_b   2.70779070
_cell_length_c   16.50951264
_cell_angle_alpha   90.00000000
_cell_angle_beta   90.00000000
_cell_angle_gamma   90.00000000
_symmetry_Int_Tables_number   115
_chemical_formula_structural   CuAu
_cell_volume   121.04990068
_cell_formula_units_Z   4
loop_
 _symmetry_equiv_pos_site_id
 _symmetry_equiv_pos_as_xyz
  1  'x, y, z'
  2  'y, -x, -z'
  3  '-x, -y, z'
  4  '-y, x, -z'
  5  '-x, y, z'
  6  '-y, -x, -z'
  7  'x, -y, z'
  8  'y, x, -z'
loop_
 _atom_site_type_symbol
 _atom_site_label
 _atom_site_symmetry_multiplicity
 _atom_site_fract_x
 _atom_site_fract_y
 _atom_site_fract_z
 _atom_site_occupancy
  Cu  Cu0  2  0.00000000  0.50000000  0.26383642  1
  Cu  Cu1  2  0.00000000  0.50000000  0.63531772  1
  Au  Au2  2  0.00000000  0.50000000  0.84957168  1
  Au  Au3  1  0.00000000  0.00000000  0.00000000  1
  Au  Au4  1  0.00000000  0.00000000  0.50000000  1
# generated using pymatgen
data_ID_39
_symmetry_space_group_name_H-M   Cmmm
_cell_length_a   5.47884169
_cell_length_b   7.51721676
_cell_length_c   5.56626371
_cell_angle_alpha   90.00000000
_cell_angle_beta   90.00000000
_cell_angle_gamma   90.00000000
_symmetry_Int_Tables_number   65
_chemical_formula_structural   CuAu
_cell_volume   229.25013621
_cell_formula_units_Z   8
loop_
 _symmetry_equiv_pos_site_id
 _symmetry_equiv_pos_as_xyz
  1  'x, y, z'
  2  '-x, -y, -z'
  3  '-x, -y, z'
  4  'x, y, -z'
  5  'x, -y, -z'
  6  '-x, y, z'
  7  '-x, y, -z'
  8  'x, -y, z'
  9  'x+1/2, y+1/2, z'
  10  '-x+1/2, -y+1/2, -z'
  11  '-x+1/2, -y+1/2, z'
  12  'x+1/2, y+1/2, -z'
  13  'x+1/2, -y+1/2, -z'
  14  '-x+1/2, y+1/2, z'
  15  '-x+1/2, y+1/2, -z'
  16  'x+1/2, -y+1/2, z'
loop_
 _atom_site_type_symbol
 _atom_site_label
 _atom_site_symmetry_multiplicity
 _atom_site_fract_x
 _atom_site_fract_y
 _atom_site_fract_z
 _atom_site_occupancy
  Cu  Cu0  4  0.00000000  0.00000000  0.23488378  1
  Cu  Cu1  4  0.25000000  0.25000000  0.00000000  1
  Au  Au2  4  0.00000000  0.50000000  0.23847719  1
  Au  Au3  4  0.25000000  0.25000000  0.50000000  1
# generated using pymatgen
data_ID_40
_symmetry_space_group_name_H-M   Fmmm
_cell_length_a   8.39786663
_cell_length_b   9.66970277
_cell_length_c   14.83055741
_cell_angle_alpha   90.00000000
_cell_angle_beta   90.00000000
_cell_angle_gamma   90.00000000
_symmetry_Int_Tables_number   69
_chemical_formula_structural   CuAu
_cell_volume   1204.31354914
_cell_formula_units_Z   32
loop_
 _symmetry_equiv_pos_site_id
 _symmetry_equiv_pos_as_xyz
  1  'x, y, z'
  2  '-x, -y, -z'
  3  '-x, -y, z'
  4  'x, y, -z'
  5  'x, -y, -z'
  6  '-x, y, z'
  7  '-x, y, -z'
  8  'x, -y, z'
  9  'x+1/2, y, z+1/2'
  10  '-x+1/2, -y, -z+1/2'
  11  '-x+1/2, -y, z+1/2'
  12  'x+1/2, y, -z+1/2'
  13  'x+1/2, -y, -z+1/2'
  14  '-x+1/2, y, z+1/2'
  15  '-x+1/2, y, -z+1/2'
  16  'x+1/2, -y, z+1/2'
  17  'x+1/2, y+1/2, z'
  18  '-x+1/2, -y+1/2, -z'
  19  '-x+1/2, -y+1/2, z'
  20  'x+1/2, y+1/2, -z'
  21  'x+1/2, -y+1/2, -z'
  22  '-x+1/2, y+1/2, z'
  23  '-x+1/2, y+1/2, -z'
  24  'x+1/2, -y+1/2, z'
  25  'x, y+1/2, z+1/2'
  26  '-x, -y+1/2, -z+1/2'
  27  '-x, -y+1/2, z+1/2'
  28  'x, y+1/2, -z+1/2'
  29  'x, -y+1/2, -z+1/2'
  30  '-x, y+1/2, z+1/2'
  31  '-x, y+1/2, -z+1/2'
  32  'x, -y+1/2, z+1/2'
loop_
 _atom_site_type_symbol
 _atom_site_label
 _atom_site_symmetry_multiplicity
 _atom_site_fract_x
 _atom_site_fract_y
 _atom_site_fract_z
 _atom_site_occupancy
  Cu  Cu0  16  0.00000000  0.13050358  0.22477516  1
  Cu  Cu1  8  0.00000000  0.19291721  0.00000000  1
  Cu  Cu2  8  0.25000000  0.00000000  0.25000000  1
  Au  Au3  16  0.16131480  0.00000000  0.08870312  1
  Au  Au4  16  0.25000000  0.25000000  0.15867327  1
# generated using pymatgen
data_ID_41
_symmetry_space_group_name_H-M   I4_1
_cell_length_a   13.91004179
_cell_length_b   13.91004179
_cell_length_c   2.70117894
_cell_angle_alpha   90.00000000
_cell_angle_beta   90.00000000
_cell_angle_gamma   90.00000000
_symmetry_Int_Tables_number   80
_chemical_formula_structural   CuAu
_cell_volume   522.64912086
_cell_formula_units_Z   16
loop_
 _symmetry_equiv_pos_site_id
 _symmetry_equiv_pos_as_xyz
  1  'x, y, z'
  2  '-y, x+1/2, z+1/4'
  3  '-x+1/2, -y+1/2, z+1/2'
  4  'y+1/2, -x, z+3/4'
  5  'x+1/2, y+1/2, z+1/2'
  6  '-y+1/2, x, z+3/4'
  7  '-x, -y, z'
  8  'y, -x+1/2, z+1/4'
loop_
 _atom_site_type_symbol
 _atom_site_label
 _atom_site_symmetry_multiplicity
 _atom_site_fract_x
 _atom_site_fract_y
 _atom_site_fract_z
 _atom_site_occupancy
  Cu  Cu0  8  0.08931015  0.09590812  0.06881191  1
  Cu  Cu1  8  0.13247462  0.25714265  0.74264971  1
  Au  Au2  8  0.02748355  0.75004394  0.24720130  1
  Au  Au3  8  0.06931054  0.57496822  0.82328288  1
# generated using pymatgen
data_ID_42
_symmetry_space_group_name_H-M   Imma
_cell_length_a   4.58189330
_cell_length_b   9.87520616
_cell_length_c   5.39557159
_cell_angle_alpha   90.00000000
_cell_angle_beta   90.00000000
_cell_angle_gamma   90.00000000
_symmetry_Int_Tables_number   74
_chemical_formula_structural   CuAu
_cell_volume   244.13418829
_cell_formula_units_Z   8
loop_
 _symmetry_equiv_pos_site_id
 _symmetry_equiv_pos_as_xyz
  1  'x, y, z'
  2  '-x, -y, -z'
  3  '-x, -y+1/2, z'
  4  'x, y+1/2, -z'
  5  'x, -y, -z'
  6  '-x, y, z'
  7  '-x, y+1/2, -z'
  8  'x, -y+1/2, z'
  9  'x+1/2, y+1/2, z+1/2'
  10  '-x+1/2, -y+1/2, -z+1/2'
  11  '-x+1/2, -y, z+1/2'
  12  'x+1/2, y, -z+1/2'
  13  'x+1/2, -y+1/2, -z+1/2'
  14  '-x+1/2, y+1/2, z+1/2'
  15  '-x+1/2, y, -z+1/2'
  16  'x+1/2, -y, z+1/2'
loop_
 _atom_site_type_symbol
 _atom_site_label
 _atom_site_symmetry_multiplicity
 _atom_site_fract_x
 _atom_site_fract_y
 _atom_site_fract_z
 _atom_site_occupancy
  Cu  Cu0  8  0.00000000  0.11728338  0.87335888  1
  Au  Au1  8  0.00000000  0.11603654  0.37939130  1
# generated using pymatgen
data_ID_43
_symmetry_space_group_name_H-M   Pmc2_1
_cell_length_a   7.58326954
_cell_length_b   7.40878193
_cell_length_c   4.37150986
_cell_angle_alpha   90.00000000
_cell_angle_beta   90.00000000
_cell_angle_gamma   90.00000000
_symmetry_Int_Tables_number   26
_chemical_formula_structural   CuAu
_cell_volume   245.60362164
_cell_formula_units_Z   8
loop_
 _symmetry_equiv_pos_site_id
 _symmetry_equiv_pos_as_xyz
  1  'x, y, z'
  2  '-x, -y, z+1/2'
  3  '-x, y, z'
  4  'x, -y, z+1/2'
loop_
 _atom_site_type_symbol
 _atom_site_label
 _atom_site_symmetry_multiplicity
 _atom_site_fract_x
 _atom_site_fract_y
 _atom_site_fract_z
 _atom_site_occupancy
  Cu  Cu0  4  0.16574590  0.22416887  0.07386811  1
  Cu  Cu1  4  0.33906716  0.07027822  0.57583419  1
  Au  Au2  4  0.29554511  0.40258730  0.57322741  1
  Au  Au3  2  0.00000000  0.11409336  0.57383952  1
  Au  Au4  2  0.50000000  0.25511397  0.07408244  1
# generated using pymatgen
data_ID_44
_symmetry_space_group_name_H-M   Pm-3m
_cell_length_a   3.02784940
_cell_length_b   3.02784940
_cell_length_c   3.02784940
_cell_angle_alpha   90.00000000
_cell_angle_beta   90.00000000
_cell_angle_gamma   90.00000000
_symmetry_Int_Tables_number   221
_chemical_formula_structural   CuAu
_cell_volume   27.75893564
_cell_formula_units_Z   1
loop_
 _symmetry_equiv_pos_site_id
 _symmetry_equiv_pos_as_xyz
  1  'x, y, z'
  2  '-x, -y, -z'
  3  '-y, x, z'
  4  'y, -x, -z'
  5  '-x, -y, z'
  6  'x, y, -z'
  7  'y, -x, z'
  8  '-y, x, -z'
  9  'x, -y, -z'
  10  '-x, y, z'
  11  '-y, -x, -z'
  12  'y, x, z'
  13  '-x, y, -z'
  14  'x, -y, z'
  15  'y, x, -z'
  16  '-y, -x, z'
  17  'z, x, y'
  18  '-z, -x, -y'
  19  'z, -y, x'
  20  '-z, y, -x'
  21  'z, -x, -y'
  22  '-z, x, y'
  23  'z, y, -x'
  24  '-z, -y, x'
  25  '-z, x, -y'
  26  'z, -x, y'
  27  '-z, -y, -x'
  28  'z, y, x'
  29  '-z, -x, y'
  30  'z, x, -y'
  31  '-z, y, x'
  32  'z, -y, -x'
  33  'y, z, x'
  34  '-y, -z, -x'
  35  'x, z, -y'
  36  '-x, -z, y'
  37  '-y, z, -x'
  38  'y, -z, x'
  39  '-x, z, y'
  40  'x, -z, -y'
  41  '-y, -z, x'
  42  'y, z, -x'
  43  '-x, -z, -y'
  44  'x, z, y'
  45  'y, -z, -x'
  46  '-y, z, x'
  47  'x, -z, y'
  48  '-x, z, -y'
loop_
 _atom_site_type_symbol
 _atom_site_label
 _atom_site_symmetry_multiplicity
 _atom_site_fract_x
 _atom_site_fract_y
 _atom_site_fract_z
 _atom_site_occupancy
  Cu  Cu0  1  0.00000000  0.00000000  0.00000000  1
  Au  Au1  1  0.50000000  0.50000000  0.50000000  1
# generated using pymatgen
data_ID_45
_symmetry_space_group_name_H-M   P4_2/mmc
_cell_length_a   2.66195782
_cell_length_b   2.66195782
_cell_length_c   9.06696788
_cell_angle_alpha   90.00000000
_cell_angle_beta   90.00000000
_cell_angle_gamma   90.00000000
_symmetry_Int_Tables_number   131
_chemical_formula_structural   CuAu
_cell_volume   64.24871056
_cell_formula_units_Z   2
loop_
 _symmetry_equiv_pos_site_id
 _symmetry_equiv_pos_as_xyz
  1  'x, y, z'
  2  '-x, -y, -z'
  3  '-y, x, z+1/2'
  4  'y, -x, -z+1/2'
  5  '-x, -y, z'
  6  'x, y, -z'
  7  'y, -x, z+1/2'
  8  '-y, x, -z+1/2'
  9  'x, -y, -z'
  10  '-x, y, z'
  11  '-y, -x, -z+1/2'
  12  'y, x, z+1/2'
  13  '-x, y, -z'
  14  'x, -y, z'
  15  'y, x, -z+1/2'
  16  '-y, -x, z+1/2'
loop_
 _atom_site_type_symbol
 _atom_site_label
 _atom_site_symmetry_multiplicity
 _atom_site_fract_x
 _atom_site_fract_y
 _atom_site_fract_z
 _atom_site_occupancy
  Cu  Cu0  2  0.00000000  0.00000000  0.25000000  1
  Au  Au1  2  0.00000000  0.50000000  0.50000000  1
# generated using pymatgen
data_ID_46
_symmetry_space_group_name_H-M   Immm
_cell_length_a   5.33197730
_cell_length_b   8.99234031
_cell_length_c   13.90863501
_cell_angle_alpha   90.00000000
_cell_angle_beta   90.00000000
_cell_angle_gamma   90.00000000
_symmetry_Int_Tables_number   71
_chemical_formula_structural   CuAu
_cell_volume   666.87668893
_cell_formula_units_Z   16
loop_
 _symmetry_equiv_pos_site_id
 _symmetry_equiv_pos_as_xyz
  1  'x, y, z'
  2  '-x, -y, -z'
  3  '-x, -y, z'
  4  'x, y, -z'
  5  'x, -y, -z'
  6  '-x, y, z'
  7  '-x, y, -z'
  8  'x, -y, z'
  9  'x+1/2, y+1/2, z+1/2'
  10  '-x+1/2, -y+1/2, -z+1/2'
  11  '-x+1/2, -y+1/2, z+1/2'
  12  'x+1/2, y+1/2, -z+1/2'
  13  'x+1/2, -y+1/2, -z+1/2'
  14  '-x+1/2, y+1/2, z+1/2'
  15  '-x+1/2, y+1/2, -z+1/2'
  16  'x+1/2, -y+1/2, z+1/2'
loop_
 _atom_site_type_symbol
 _atom_site_label
 _atom_site_symmetry_multiplicity
 _atom_site_fract_x
 _atom_site_fract_y
 _atom_site_fract_z
 _atom_site_occupancy
  Cu  Cu0  8  0.25000000  0.25000000  0.25000000  1
  Cu  Cu1  4  0.00000000  0.27554782  0.00000000  1
  Cu  Cu2  4  0.23916847  0.00000000  0.50000000  1
  Au  Au3  8  0.24877632  0.50000000  0.32927202  1
  Au  Au4  4  0.00000000  0.00000000  0.33702339  1
  Au  Au5  2  0.00000000  0.00000000  0.00000000  1
  Au  Au6  2  0.00000000  0.50000000  0.50000000  1
# generated using pymatgen
data_ID_47
_symmetry_space_group_name_H-M   I4/mmm
_cell_length_a   7.51190747
_cell_length_b   7.51190747
_cell_length_c   19.62301605
_cell_angle_alpha   90.00000000
_cell_angle_beta   90.00000000
_cell_angle_gamma   90.00000000
_symmetry_Int_Tables_number   139
_chemical_formula_structural   CuAu
_cell_volume   1107.30234159
_cell_formula_units_Z   16
loop_
 _symmetry_equiv_pos_site_id
 _symmetry_equiv_pos_as_xyz
  1  'x, y, z'
  2  '-x, -y, -z'
  3  '-y, x, z'
  4  'y, -x, -z'
  5  '-x, -y, z'
  6  'x, y, -z'
  7  'y, -x, z'
  8  '-y, x, -z'
  9  'x, -y, -z'
  10  '-x, y, z'
  11  '-y, -x, -z'
  12  'y, x, z'
  13  '-x, y, -z'
  14  'x, -y, z'
  15  'y, x, -z'
  16  '-y, -x, z'
  17  'x+1/2, y+1/2, z+1/2'
  18  '-x+1/2, -y+1/2, -z+1/2'
  19  '-y+1/2, x+1/2, z+1/2'
  20  'y+1/2, -x+1/2, -z+1/2'
  21  '-x+1/2, -y+1/2, z+1/2'
  22  'x+1/2, y+1/2, -z+1/2'
  23  'y+1/2, -x+1/2, z+1/2'
  24  '-y+1/2, x+1/2, -z+1/2'
  25  'x+1/2, -y+1/2, -z+1/2'
  26  '-x+1/2, y+1/2, z+1/2'
  27  '-y+1/2, -x+1/2, -z+1/2'
  28  'y+1/2, x+1/2, z+1/2'
  29  '-x+1/2, y+1/2, -z+1/2'
  30  'x+1/2, -y+1/2, z+1/2'
  31  'y+1/2, x+1/2, -z+1/2'
  32  '-y+1/2, -x+1/2, z+1/2'
loop_
 _atom_site_type_symbol
 _atom_site_label
 _atom_site_symmetry_multiplicity
 _atom_site_fract_x
 _atom_site_fract_y
 _atom_site_fract_z
 _atom_site_occupancy
  Cu  Cu0  16  0.00000000  0.23908329  0.15852440  1
  Au  Au1  8  0.25000000  0.25000000  0.25000000  1
  Au  Au2  4  0.00000000  0.00000000  0.06486688  1
  Au  Au3  4  0.00000000  0.50000000  0.25000000  1
# generated using pymatgen
data_ID_48
_symmetry_space_group_name_H-M   P312
_cell_length_a   7.23078771
_cell_length_b   7.23078771
_cell_length_c   5.26668323
_cell_angle_alpha   90.00000000
_cell_angle_beta   90.00000000
_cell_angle_gamma   120.00000000
_symmetry_Int_Tables_number   149
_chemical_formula_structural   CuAu
_cell_volume   238.47291069
_cell_formula_units_Z   8
loop_
 _symmetry_equiv_pos_site_id
 _symmetry_equiv_pos_as_xyz
  1  'x, y, z'
  2  '-y, x-y, z'
  3  '-x+y, -x, z'
  4  '-y, -x, -z'
  5  '-x+y, y, -z'
  6  'x, x-y, -z'
loop_
 _atom_site_type_symbol
 _atom_site_label
 _atom_site_symmetry_multiplicity
 _atom_site_fract_x
 _atom_site_fract_y
 _atom_site_fract_z
 _atom_site_occupancy
  Cu  Cu0  6  0.03583470  0.39419223  0.16821390  1
  Cu  Cu1  1  0.00000000  0.00000000  0.00000000  1
  Cu  Cu2  1  0.33333333  0.66666667  0.50000000  1
  Au  Au3  6  0.28656574  0.01017593  0.67773418  1
  Au  Au4  1  0.66666667  0.33333333  0.00000000  1
  Au  Au5  1  0.66666667  0.33333333  0.50000000  1
# generated using pymatgen
data_ID_49
_symmetry_space_group_name_H-M   P6_3/mmc
_cell_length_a   2.77457605
_cell_length_b   2.77457605
_cell_length_c   8.60297609
_cell_angle_alpha   90.00000000
_cell_angle_beta   90.00000000
_cell_angle_gamma   120.00000000
_symmetry_Int_Tables_number   194
_chemical_formula_structural   CuAu
_cell_volume   57.35517578
_cell_formula_units_Z   2
loop_
 _symmetry_equiv_pos_site_id
 _symmetry_equiv_pos_as_xyz
  1  'x, y, z'
  2  '-x, -y, -z'
  3  'x-y, x, z+1/2'
  4  '-x+y, -x, -z+1/2'
  5  '-y, x-y, z'
  6  'y, -x+y, -z'
  7  '-x, -y, z+1/2'
  8  'x, y, -z+1/2'
  9  '-x+y, -x, z'
  10  'x-y, x, -z'
  11  'y, -x+y, z+1/2'
  12  '-y, x-y, -z+1/2'
  13  '-y, -x, -z+1/2'
  14  'y, x, z+1/2'
  15  '-x, -x+y, -z'
  16  'x, x-y, z'
  17  '-x+y, y, -z+1/2'
  18  'x-y, -y, z+1/2'
  19  'y, x, -z'
  20  '-y, -x, z'
  21  'x, x-y, -z+1/2'
  22  '-x, -x+y, z+1/2'
  23  'x-y, -y, -z'
  24  '-x+y, y, z'
loop_
 _atom_site_type_symbol
 _atom_site_label
 _atom_site_symmetry_multiplicity
 _atom_site_fract_x
 _atom_site_fract_y
 _atom_site_fract_z
 _atom_site_occupancy
  Cu  Cu0  2  0.00000000  0.00000000  0.00000000  1
  Au  Au1  2  0.33333333  0.66666667  0.25000000  1
# generated using pymatgen
data_ID_50
_symmetry_space_group_name_H-M   Pm-3m
_cell_length_a   3.02770376
_cell_length_b   3.02770376
_cell_length_c   3.02770376
_cell_angle_alpha   90.00000000
_cell_angle_beta   90.00000000
_cell_angle_gamma   90.00000000
_symmetry_Int_Tables_number   221
_chemical_formula_structural   CuAu
_cell_volume   27.75493023
_cell_formula_units_Z   1
loop_
 _symmetry_equiv_pos_site_id
 _symmetry_equiv_pos_as_xyz
  1  'x, y, z'
  2  '-x, -y, -z'
  3  '-y, x, z'
  4  'y, -x, -z'
  5  '-x, -y, z'
  6  'x, y, -z'
  7  'y, -x, z'
  8  '-y, x, -z'
  9  'x, -y, -z'
  10  '-x, y, z'
  11  '-y, -x, -z'
  12  'y, x, z'
  13  '-x, y, -z'
  14  'x, -y, z'
  15  'y, x, -z'
  16  '-y, -x, z'
  17  'z, x, y'
  18  '-z, -x, -y'
  19  'z, -y, x'
  20  '-z, y, -x'
  21  'z, -x, -y'
  22  '-z, x, y'
  23  'z, y, -x'
  24  '-z, -y, x'
  25  '-z, x, -y'
  26  'z, -x, y'
  27  '-z, -y, -x'
  28  'z, y, x'
  29  '-z, -x, y'
  30  'z, x, -y'
  31  '-z, y, x'
  32  'z, -y, -x'
  33  'y, z, x'
  34  '-y, -z, -x'
  35  'x, z, -y'
  36  '-x, -z, y'
  37  '-y, z, -x'
  38  'y, -z, x'
  39  '-x, z, y'
  40  'x, -z, -y'
  41  '-y, -z, x'
  42  'y, z, -x'
  43  '-x, -z, -y'
  44  'x, z, y'
  45  'y, -z, -x'
  46  '-y, z, x'
  47  'x, -z, y'
  48  '-x, z, -y'
loop_
 _atom_site_type_symbol
 _atom_site_label
 _atom_site_symmetry_multiplicity
 _atom_site_fract_x
 _atom_site_fract_y
 _atom_site_fract_z
 _atom_site_occupancy
  Cu  Cu0  1  0.50000000  0.50000000  0.50000000  1
  Au  Au1  1  0.00000000  0.00000000  0.00000000  1
# generated using pymatgen
data_ID_51
_symmetry_space_group_name_H-M   P6/m
_cell_length_a   7.69681750
_cell_length_b   7.69681750
_cell_length_c   4.59686466
_cell_angle_alpha   90.00000000
_cell_angle_beta   90.00000000
_cell_angle_gamma   120.00000000
_symmetry_Int_Tables_number   175
_chemical_formula_structural   CuAu
_cell_volume   235.83851303
_cell_formula_units_Z   8
loop_
 _symmetry_equiv_pos_site_id
 _symmetry_equiv_pos_as_xyz
  1  'x, y, z'
  2  '-x, -y, -z'
  3  'x-y, x, z'
  4  '-x+y, -x, -z'
  5  '-y, x-y, z'
  6  'y, -x+y, -z'
  7  '-x, -y, z'
  8  'x, y, -z'
  9  '-x+y, -x, z'
  10  'x-y, x, -z'
  11  'y, -x+y, z'
  12  '-y, x-y, -z'
loop_
 _atom_site_type_symbol
 _atom_site_label
 _atom_site_symmetry_multiplicity
 _atom_site_fract_x
 _atom_site_fract_y
 _atom_site_fract_z
 _atom_site_occupancy
  Cu  Cu0  6  0.00132028  0.32847252  0.50000000  1
  Cu  Cu1  1  0.00000000  0.00000000  0.00000000  1
  Cu  Cu2  1  0.00000000  0.00000000  0.50000000  1
  Au  Au3  6  0.20376484  0.78825605  0.00000000  1
  Au  Au4  2  0.33333333  0.66666667  0.50000000  1
# generated using pymatgen
data_ID_52
_symmetry_space_group_name_H-M   P-3
_cell_length_a   5.12807807
_cell_length_b   5.12807807
_cell_length_c   11.16766283
_cell_angle_alpha   90.00000000
_cell_angle_beta   90.00000000
_cell_angle_gamma   120.00000000
_symmetry_Int_Tables_number   147
_chemical_formula_structural   CuAu
_cell_volume   254.33268814
_cell_formula_units_Z   8
loop_
 _symmetry_equiv_pos_site_id
 _symmetry_equiv_pos_as_xyz
  1  'x, y, z'
  2  '-x, -y, -z'
  3  '-y, x-y, z'
  4  'y, -x+y, -z'
  5  '-x+y, -x, z'
  6  'x-y, x, -z'
loop_
 _atom_site_type_symbol
 _atom_site_label
 _atom_site_symmetry_multiplicity
 _atom_site_fract_x
 _atom_site_fract_y
 _atom_site_fract_z
 _atom_site_occupancy
  Cu  Cu0  6  0.00425874  0.54671602  0.60598961  1
  Cu  Cu1  2  0.33333333  0.66666667  0.79556175  1
  Au  Au2  3  0.00000000  0.50000000  0.00000000  1
  Au  Au3  2  0.00000000  0.00000000  0.13150943  1
  Au  Au4  2  0.33333333  0.66666667  0.20908839  1
  Au  Au5  1  0.00000000  0.00000000  0.50000000  1
# generated using pymatgen
data_ID_53
_symmetry_space_group_name_H-M   Pm-3m
_cell_length_a   3.02790291
_cell_length_b   3.02790291
_cell_length_c   3.02790291
_cell_angle_alpha   90.00000000
_cell_angle_beta   90.00000000
_cell_angle_gamma   90.00000000
_symmetry_Int_Tables_number   221
_chemical_formula_structural   CuAu
_cell_volume   27.76040755
_cell_formula_units_Z   1
loop_
 _symmetry_equiv_pos_site_id
 _symmetry_equiv_pos_as_xyz
  1  'x, y, z'
  2  '-x, -y, -z'
  3  '-y, x, z'
  4  'y, -x, -z'
  5  '-x, -y, z'
  6  'x, y, -z'
  7  'y, -x, z'
  8  '-y, x, -z'
  9  'x, -y, -z'
  10  '-x, y, z'
  11  '-y, -x, -z'
  12  'y, x, z'
  13  '-x, y, -z'
  14  'x, -y, z'
  15  'y, x, -z'
  16  '-y, -x, z'
  17  'z, x, y'
  18  '-z, -x, -y'
  19  'z, -y, x'
  20  '-z, y, -x'
  21  'z, -x, -y'
  22  '-z, x, y'
  23  'z, y, -x'
  24  '-z, -y, x'
  25  '-z, x, -y'
  26  'z, -x, y'
  27  '-z, -y, -x'
  28  'z, y, x'
  29  '-z, -x, y'
  30  'z, x, -y'
  31  '-z, y, x'
  32  'z, -y, -x'
  33  'y, z, x'
  34  '-y, -z, -x'
  35  'x, z, -y'
  36  '-x, -z, y'
  37  '-y, z, -x'
  38  'y, -z, x'
  39  '-x, z, y'
  40  'x, -z, -y'
  41  '-y, -z, x'
  42  'y, z, -x'
  43  '-x, -z, -y'
  44  'x, z, y'
  45  'y, -z, -x'
  46  '-y, z, x'
  47  'x, -z, y'
  48  '-x, z, -y'
loop_
 _atom_site_type_symbol
 _atom_site_label
 _atom_site_symmetry_multiplicity
 _atom_site_fract_x
 _atom_site_fract_y
 _atom_site_fract_z
 _atom_site_occupancy
  Cu  Cu0  1  0.00000000  0.00000000  0.00000000  1
  Au  Au1  1  0.50000000  0.50000000  0.50000000  1
# generated using pymatgen
data_ID_54
_symmetry_space_group_name_H-M   Immm
_cell_length_a   7.00504071
_cell_length_b   9.04354478
_cell_length_c   12.77060072
_cell_angle_alpha   90.00000000
_cell_angle_beta   90.00000000
_cell_angle_gamma   90.00000000
_symmetry_Int_Tables_number   71
_chemical_formula_structural   CuAu
_cell_volume   809.02265509
_cell_formula_units_Z   16
loop_
 _symmetry_equiv_pos_site_id
 _symmetry_equiv_pos_as_xyz
  1  'x, y, z'
  2  '-x, -y, -z'
  3  '-x, -y, z'
  4  'x, y, -z'
  5  'x, -y, -z'
  6  '-x, y, z'
  7  '-x, y, -z'
  8  'x, -y, z'
  9  'x+1/2, y+1/2, z+1/2'
  10  '-x+1/2, -y+1/2, -z+1/2'
  11  '-x+1/2, -y+1/2, z+1/2'
  12  'x+1/2, y+1/2, -z+1/2'
  13  'x+1/2, -y+1/2, -z+1/2'
  14  '-x+1/2, y+1/2, z+1/2'
  15  '-x+1/2, y+1/2, -z+1/2'
  16  'x+1/2, -y+1/2, z+1/2'
loop_
 _atom_site_type_symbol
 _atom_site_label
 _atom_site_symmetry_multiplicity
 _atom_site_fract_x
 _atom_site_fract_y
 _atom_site_fract_z
 _atom_site_occupancy
  Cu  Cu0  4  0.00000000  0.22994506  0.50000000  1
  Cu  Cu1  4  0.00000000  0.26321585  0.00000000  1
  Cu  Cu2  4  0.00000000  0.50000000  0.30854838  1
  Cu  Cu3  4  0.18518592  0.00000000  0.50000000  1
  Au  Au4  8  0.17713228  0.00000000  0.29281363  1
  Au  Au5  4  0.00000000  0.50000000  0.10831340  1
  Au  Au6  2  0.00000000  0.00000000  0.00000000  1
  Au  Au7  2  0.00000000  0.50000000  0.50000000  1
# generated using pymatgen
data_ID_55
_symmetry_space_group_name_H-M   Ccc2
_cell_length_a   6.56074902
_cell_length_b   8.02539510
_cell_length_c   8.89253103
_cell_angle_alpha   90.00000000
_cell_angle_beta   90.00000000
_cell_angle_gamma   90.00000000
_symmetry_Int_Tables_number   37
_chemical_formula_structural   CuAu
_cell_volume   468.21490686
_cell_formula_units_Z   16
loop_
 _symmetry_equiv_pos_site_id
 _symmetry_equiv_pos_as_xyz
  1  'x, y, z'
  2  '-x, -y, z'
  3  '-x, y, z+1/2'
  4  'x, -y, z+1/2'
  5  'x+1/2, y+1/2, z'
  6  '-x+1/2, -y+1/2, z'
  7  '-x+1/2, y+1/2, z+1/2'
  8  'x+1/2, -y+1/2, z+1/2'
loop_
 _atom_site_type_symbol
 _atom_site_label
 _atom_site_symmetry_multiplicity
 _atom_site_fract_x
 _atom_site_fract_y
 _atom_site_fract_z
 _atom_site_occupancy
  Cu  Cu0  8  0.18871624  0.45501628  0.59647546  1
  Cu  Cu1  4  0.00000000  0.00000000  0.31724354  1
  Cu  Cu2  4  0.25000000  0.25000000  0.81064036  1
  Au  Au3  8  0.04485185  0.18864176  0.06821067  1
  Au  Au4  8  0.11678408  0.36821274  0.32710292  1
# generated using pymatgen
data_ID_56
_symmetry_space_group_name_H-M   Cmmm
_cell_length_a   5.90452889
_cell_length_b   6.66752423
_cell_length_c   2.82595848
_cell_angle_alpha   90.00000000
_cell_angle_beta   90.00000000
_cell_angle_gamma   90.00000000
_symmetry_Int_Tables_number   65
_chemical_formula_structural   CuAu
_cell_volume   111.25399935
_cell_formula_units_Z   4
loop_
 _symmetry_equiv_pos_site_id
 _symmetry_equiv_pos_as_xyz
  1  'x, y, z'
  2  '-x, -y, -z'
  3  '-x, -y, z'
  4  'x, y, -z'
  5  'x, -y, -z'
  6  '-x, y, z'
  7  '-x, y, -z'
  8  'x, -y, z'
  9  'x+1/2, y+1/2, z'
  10  '-x+1/2, -y+1/2, -z'
  11  '-x+1/2, -y+1/2, z'
  12  'x+1/2, y+1/2, -z'
  13  'x+1/2, -y+1/2, -z'
  14  '-x+1/2, y+1/2, z'
  15  '-x+1/2, y+1/2, -z'
  16  'x+1/2, -y+1/2, z'
loop_
 _atom_site_type_symbol
 _atom_site_label
 _atom_site_symmetry_multiplicity
 _atom_site_fract_x
 _atom_site_fract_y
 _atom_site_fract_z
 _atom_site_occupancy
  Cu  Cu0  4  0.21855448  0.50000000  0.00000000  1
  Au  Au1  4  0.00000000  0.22370732  0.50000000  1
# generated using pymatgen
data_ID_57
_symmetry_space_group_name_H-M   P4_2/ncm
_cell_length_a   5.14868741
_cell_length_b   5.14868741
_cell_length_c   12.57752658
_cell_angle_alpha   90.00000000
_cell_angle_beta   90.00000000
_cell_angle_gamma   90.00000000
_symmetry_Int_Tables_number   138
_chemical_formula_structural   CuAu
_cell_volume   333.41742593
_cell_formula_units_Z   8
loop_
 _symmetry_equiv_pos_site_id
 _symmetry_equiv_pos_as_xyz
  1  'x, y, z'
  2  '-y+1/2, x+1/2, z+1/2'
  3  '-x, -y, z'
  4  'y+1/2, -x+1/2, z+1/2'
  5  'x+1/2, -y+1/2, -z'
  6  '-y, -x, -z+1/2'
  7  '-x+1/2, y+1/2, -z'
  8  'y, x, -z+1/2'
  9  '-x+1/2, -y+1/2, -z+1/2'
  10  'y, -x, -z'
  11  'x+1/2, y+1/2, -z+1/2'
  12  '-y, x, -z'
  13  '-x, y, z+1/2'
  14  'y+1/2, x+1/2, z'
  15  'x, -y, z+1/2'
  16  '-y+1/2, -x+1/2, z'
loop_
 _atom_site_type_symbol
 _atom_site_label
 _atom_site_symmetry_multiplicity
 _atom_site_fract_x
 _atom_site_fract_y
 _atom_site_fract_z
 _atom_site_occupancy
  Cu  Cu0  4  0.00000000  0.50000000  0.39636123  1
  Cu  Cu1  4  0.25000000  0.25000000  0.25000000  1
  Au  Au2  4  0.00000000  0.50000000  0.09739576  1
  Au  Au3  4  0.25000000  0.25000000  0.75000000  1
# generated using pymatgen
data_ID_58
_symmetry_space_group_name_H-M   P4/mnc
_cell_length_a   4.80922232
_cell_length_b   4.80922232
_cell_length_c   12.73510118
_cell_angle_alpha   90.00000000
_cell_angle_beta   90.00000000
_cell_angle_gamma   90.00000000
_symmetry_Int_Tables_number   128
_chemical_formula_structural   CuAu
_cell_volume   294.54530663
_cell_formula_units_Z   8
loop_
 _symmetry_equiv_pos_site_id
 _symmetry_equiv_pos_as_xyz
  1  'x, y, z'
  2  '-x, -y, -z'
  3  '-y, x, z'
  4  'y, -x, -z'
  5  '-x, -y, z'
  6  'x, y, -z'
  7  'y, -x, z'
  8  '-y, x, -z'
  9  'x+1/2, -y+1/2, -z+1/2'
  10  '-x+1/2, y+1/2, z+1/2'
  11  '-y+1/2, -x+1/2, -z+1/2'
  12  'y+1/2, x+1/2, z+1/2'
  13  '-x+1/2, y+1/2, -z+1/2'
  14  'x+1/2, -y+1/2, z+1/2'
  15  'y+1/2, x+1/2, -z+1/2'
  16  '-y+1/2, -x+1/2, z+1/2'
loop_
 _atom_site_type_symbol
 _atom_site_label
 _atom_site_symmetry_multiplicity
 _atom_site_fract_x
 _atom_site_fract_y
 _atom_site_fract_z
 _atom_site_occupancy
  Cu  Cu0  8  0.18063589  0.31936411  0.25000000  1
  Au  Au1  4  0.00000000  0.00000000  0.10280515  1
  Au  Au2  4  0.00000000  0.50000000  0.00000000  1
# generated using pymatgen
data_ID_59
_symmetry_space_group_name_H-M   Cmmm
_cell_length_a   5.17872406
_cell_length_b   9.11521125
_cell_length_c   5.20240583
_cell_angle_alpha   90.00000000
_cell_angle_beta   90.00000000
_cell_angle_gamma   90.00000000
_symmetry_Int_Tables_number   65
_chemical_formula_structural   CuAu
_cell_volume   245.58041939
_cell_formula_units_Z   8
loop_
 _symmetry_equiv_pos_site_id
 _symmetry_equiv_pos_as_xyz
  1  'x, y, z'
  2  '-x, -y, -z'
  3  '-x, -y, z'
  4  'x, y, -z'
  5  'x, -y, -z'
  6  '-x, y, z'
  7  '-x, y, -z'
  8  'x, -y, z'
  9  'x+1/2, y+1/2, z'
  10  '-x+1/2, -y+1/2, -z'
  11  '-x+1/2, -y+1/2, z'
  12  'x+1/2, y+1/2, -z'
  13  'x+1/2, -y+1/2, -z'
  14  '-x+1/2, y+1/2, z'
  15  '-x+1/2, y+1/2, -z'
  16  'x+1/2, -y+1/2, z'
loop_
 _atom_site_type_symbol
 _atom_site_label
 _atom_site_symmetry_multiplicity
 _atom_site_fract_x
 _atom_site_fract_y
 _atom_site_fract_z
 _atom_site_occupancy
  Cu  Cu0  4  0.00000000  0.50000000  0.24644086  1
  Cu  Cu1  4  0.25000000  0.25000000  0.00000000  1
  Au  Au2  4  0.25000000  0.25000000  0.50000000  1
  Au  Au3  2  0.00000000  0.00000000  0.00000000  1
  Au  Au4  2  0.00000000  0.00000000  0.50000000  1
# generated using pymatgen
data_ID_60
_symmetry_space_group_name_H-M   Pm-3m
_cell_length_a   5.17660427
_cell_length_b   5.17660427
_cell_length_c   5.17660427
_cell_angle_alpha   90.00000000
_cell_angle_beta   90.00000000
_cell_angle_gamma   90.00000000
_symmetry_Int_Tables_number   221
_chemical_formula_structural   CuAu
_cell_volume   138.71866421
_cell_formula_units_Z   4
loop_
 _symmetry_equiv_pos_site_id
 _symmetry_equiv_pos_as_xyz
  1  'x, y, z'
  2  '-x, -y, -z'
  3  '-y, x, z'
  4  'y, -x, -z'
  5  '-x, -y, z'
  6  'x, y, -z'
  7  'y, -x, z'
  8  '-y, x, -z'
  9  'x, -y, -z'
  10  '-x, y, z'
  11  '-y, -x, -z'
  12  'y, x, z'
  13  '-x, y, -z'
  14  'x, -y, z'
  15  'y, x, -z'
  16  '-y, -x, z'
  17  'z, x, y'
  18  '-z, -x, -y'
  19  'z, -y, x'
  20  '-z, y, -x'
  21  'z, -x, -y'
  22  '-z, x, y'
  23  'z, y, -x'
  24  '-z, -y, x'
  25  '-z, x, -y'
  26  'z, -x, y'
  27  '-z, -y, -x'
  28  'z, y, x'
  29  '-z, -x, y'
  30  'z, x, -y'
  31  '-z, y, x'
  32  'z, -y, -x'
  33  'y, z, x'
  34  '-y, -z, -x'
  35  'x, z, -y'
  36  '-x, -z, y'
  37  '-y, z, -x'
  38  'y, -z, x'
  39  '-x, z, y'
  40  'x, -z, -y'
  41  '-y, -z, x'
  42  'y, z, -x'
  43  '-x, -z, -y'
  44  'x, z, y'
  45  'y, -z, -x'
  46  '-y, z, x'
  47  'x, -z, y'
  48  '-x, z, -y'
loop_
 _atom_site_type_symbol
 _atom_site_label
 _atom_site_symmetry_multiplicity
 _atom_site_fract_x
 _atom_site_fract_y
 _atom_site_fract_z
 _atom_site_occupancy
  Cu  Cu0  3  0.00000000  0.50000000  0.50000000  1
  Cu  Cu1  1  0.50000000  0.50000000  0.50000000  1
  Au  Au2  3  0.00000000  0.00000000  0.50000000  1
  Au  Au3  1  0.00000000  0.00000000  0.00000000  1
# generated using pymatgen
data_ID_61
_symmetry_space_group_name_H-M   C2/m
_cell_length_a   8.96638174
_cell_length_b   13.19706060
_cell_length_c   5.39570388
_cell_angle_alpha   90.00000000
_cell_angle_beta   123.07176797
_cell_angle_gamma   90.00000000
_symmetry_Int_Tables_number   12
_chemical_formula_structural   CuAu
_cell_volume   535.03253031
_cell_formula_units_Z   16
loop_
 _symmetry_equiv_pos_site_id
 _symmetry_equiv_pos_as_xyz
  1  'x, y, z'
  2  '-x, -y, -z'
  3  '-x, y, -z'
  4  'x, -y, z'
  5  'x+1/2, y+1/2, z'
  6  '-x+1/2, -y+1/2, -z'
  7  '-x+1/2, y+1/2, -z'
  8  'x+1/2, -y+1/2, z'
loop_
 _atom_site_type_symbol
 _atom_site_label
 _atom_site_symmetry_multiplicity
 _atom_site_fract_x
 _atom_site_fract_y
 _atom_site_fract_z
 _atom_site_occupancy
  Cu  Cu0  8  0.15743924  0.17721612  0.01349735  1
  Cu  Cu1  4  0.25000000  0.25000000  0.50000000  1
  Cu  Cu2  2  0.00000000  0.00000000  0.00000000  1
  Cu  Cu3  2  0.00000000  0.50000000  0.50000000  1
  Au  Au4  4  0.00000000  0.10423150  0.50000000  1
  Au  Au5  4  0.00000000  0.31441351  0.50000000  1
  Au  Au6  4  0.00000000  0.34855451  0.00000000  1
  Au  Au7  4  0.22269113  0.50000000  0.05501160  1
# generated using pymatgen
data_ID_62
_symmetry_space_group_name_H-M   I-43d
_cell_length_a   10.89397241
_cell_length_b   10.89397241
_cell_length_c   10.89397241
_cell_angle_alpha   90.00000000
_cell_angle_beta   90.00000000
_cell_angle_gamma   90.00000000
_symmetry_Int_Tables_number   220
_chemical_formula_structural   CuAu
_cell_volume   1292.88177404
_cell_formula_units_Z   16
loop_
 _symmetry_equiv_pos_site_id
 _symmetry_equiv_pos_as_xyz
  1  'x, y, z'
  2  'y+1/4, -x+3/4, -z+1/4'
  3  '-x, -y+1/2, z'
  4  '-y+3/4, x+3/4, -z+1/4'
  5  'x, -y, -z+1/2'
  6  'y+1/4, x+1/4, z+1/4'
  7  '-x, y+1/2, -z+1/2'
  8  '-y+3/4, -x+1/4, z+1/4'
  9  'z, x, y'
  10  '-z+1/4, y+1/4, -x+3/4'
  11  'z, -x, -y+1/2'
  12  '-z+1/4, -y+3/4, x+3/4'
  13  '-z+1/2, x, -y'
  14  'z+1/4, y+1/4, x+1/4'
  15  '-z+1/2, -x, y+1/2'
  16  'z+1/4, -y+3/4, -x+1/4'
  17  'y, z, x'
  18  '-x+3/4, -z+1/4, y+1/4'
  19  '-y+1/2, z, -x'
  20  'x+3/4, -z+1/4, -y+3/4'
  21  '-y, -z+1/2, x'
  22  'x+1/4, z+1/4, y+1/4'
  23  'y+1/2, -z+1/2, -x'
  24  '-x+1/4, z+1/4, -y+3/4'
  25  'x+1/2, y+1/2, z+1/2'
  26  'y+3/4, -x+1/4, -z+3/4'
  27  '-x+1/2, -y, z+1/2'
  28  '-y+1/4, x+1/4, -z+3/4'
  29  'x+1/2, -y+1/2, -z'
  30  'y+3/4, x+3/4, z+3/4'
  31  '-x+1/2, y, -z'
  32  '-y+1/4, -x+3/4, z+3/4'
  33  'z+1/2, x+1/2, y+1/2'
  34  '-z+3/4, y+3/4, -x+1/4'
  35  'z+1/2, -x+1/2, -y'
  36  '-z+3/4, -y+1/4, x+1/4'
  37  '-z, x+1/2, -y+1/2'
  38  'z+3/4, y+3/4, x+3/4'
  39  '-z, -x+1/2, y'
  40  'z+3/4, -y+1/4, -x+3/4'
  41  'y+1/2, z+1/2, x+1/2'
  42  '-x+1/4, -z+3/4, y+3/4'
  43  '-y, z+1/2, -x+1/2'
  44  'x+1/4, -z+3/4, -y+1/4'
  45  '-y+1/2, -z, x+1/2'
  46  'x+3/4, z+3/4, y+3/4'
  47  'y, -z, -x+1/2'
  48  '-x+3/4, z+3/4, -y+1/4'
loop_
 _atom_site_type_symbol
 _atom_site_label
 _atom_site_symmetry_multiplicity
 _atom_site_fract_x
 _atom_site_fract_y
 _atom_site_fract_z
 _atom_site_occupancy
  Cu  Cu0  16  0.00974008  0.00974008  0.00974008  1
  Au  Au1  16  0.11535956  0.38464044  0.61535956  1
# generated using pymatgen
data_ID_63
_symmetry_space_group_name_H-M   I4_1
_cell_length_a   8.85737542
_cell_length_b   8.85737542
_cell_length_c   6.67922389
_cell_angle_alpha   90.00000000
_cell_angle_beta   90.00000000
_cell_angle_gamma   90.00000000
_symmetry_Int_Tables_number   80
_chemical_formula_structural   CuAu
_cell_volume   524.00581546
_cell_formula_units_Z   16
loop_
 _symmetry_equiv_pos_site_id
 _symmetry_equiv_pos_as_xyz
  1  'x, y, z'
  2  '-y, x+1/2, z+1/4'
  3  '-x+1/2, -y+1/2, z+1/2'
  4  'y+1/2, -x, z+3/4'
  5  'x+1/2, y+1/2, z+1/2'
  6  '-y+1/2, x, z+3/4'
  7  '-x, -y, z'
  8  'y, -x+1/2, z+1/4'
loop_
 _atom_site_type_symbol
 _atom_site_label
 _atom_site_symmetry_multiplicity
 _atom_site_fract_x
 _atom_site_fract_y
 _atom_site_fract_z
 _atom_site_occupancy
  Cu  Cu0  8  0.09959905  0.19536109  0.06992611  1
  Cu  Cu1  8  0.10699613  0.23056253  0.61240869  1
  Au  Au2  8  0.09028330  0.69378988  0.33616295  1
  Au  Au3  4  0.00000000  0.00000000  0.38416224  1
  Au  Au4  4  0.00000000  0.00000000  0.79655617  1
# generated using pymatgen
data_ID_64
_symmetry_space_group_name_H-M   Pmm2
_cell_length_a   2.63677091
_cell_length_b   8.92442367
_cell_length_c   5.14335404
_cell_angle_alpha   90.00000000
_cell_angle_beta   90.00000000
_cell_angle_gamma   90.00000000
_symmetry_Int_Tables_number   25
_chemical_formula_structural   CuAu
_cell_volume   121.03166208
_cell_formula_units_Z   4
loop_
 _symmetry_equiv_pos_site_id
 _symmetry_equiv_pos_as_xyz
  1  'x, y, z'
  2  '-x, -y, z'
  3  '-x, y, z'
  4  'x, -y, z'
loop_
 _atom_site_type_symbol
 _atom_site_label
 _atom_site_symmetry_multiplicity
 _atom_site_fract_x
 _atom_site_fract_y
 _atom_site_fract_z
 _atom_site_occupancy
  Cu  Cu0  2  0.00000000  0.24268149  0.27870853  1
  Cu  Cu1  1  0.50000000  0.00000000  0.04117623  1
  Cu  Cu2  1  0.50000000  0.50000000  0.02095697  1
  Au  Au3  2  0.00000000  0.25670799  0.80027764  1
  Au  Au4  1  0.00000000  0.00000000  0.53148567  1
  Au  Au5  1  0.00000000  0.50000000  0.49073031  1
# generated using pymatgen
data_ID_65
_symmetry_space_group_name_H-M   Ibca
_cell_length_a   5.11720714
_cell_length_b   8.79380871
_cell_length_c   10.36747432
_cell_angle_alpha   90.00000000
_cell_angle_beta   90.00000000
_cell_angle_gamma   90.00000000
_symmetry_Int_Tables_number   73
_chemical_formula_structural   CuAu
_cell_volume   466.53365641
_cell_formula_units_Z   16
loop_
 _symmetry_equiv_pos_site_id
 _symmetry_equiv_pos_as_xyz
  1  'x, y, z'
  2  '-x, -y, -z'
  3  '-x, -y+1/2, z'
  4  'x, y+1/2, -z'
  5  'x, -y, -z+1/2'
  6  '-x, y, z+1/2'
  7  '-x, y+1/2, -z+1/2'
  8  'x, -y+1/2, z+1/2'
  9  'x+1/2, y+1/2, z+1/2'
  10  '-x+1/2, -y+1/2, -z+1/2'
  11  '-x+1/2, -y, z+1/2'
  12  'x+1/2, y, -z+1/2'
  13  'x+1/2, -y+1/2, -z'
  14  '-x+1/2, y+1/2, z'
  15  '-x+1/2, y, -z'
  16  'x+1/2, -y, z'
loop_
 _atom_site_type_symbol
 _atom_site_label
 _atom_site_symmetry_multiplicity
 _atom_site_fract_x
 _atom_site_fract_y
 _atom_site_fract_z
 _atom_site_occupancy
  Cu  Cu0  8  0.00000000  0.25000000  0.20724250  1
  Cu  Cu1  8  0.25000000  0.20541897  0.50000000  1
  Au  Au2  16  0.12099925  0.04711106  0.87770177  1
# generated using pymatgen
data_ID_66
_symmetry_space_group_name_H-M   P4_2/mmc
_cell_length_a   4.91594056
_cell_length_b   4.91594056
_cell_length_c   5.25953707
_cell_angle_alpha   90.00000000
_cell_angle_beta   90.00000000
_cell_angle_gamma   90.00000000
_symmetry_Int_Tables_number   131
_chemical_formula_structural   CuAu
_cell_volume   127.10445327
_cell_formula_units_Z   4
loop_
 _symmetry_equiv_pos_site_id
 _symmetry_equiv_pos_as_xyz
  1  'x, y, z'
  2  '-x, -y, -z'
  3  '-y, x, z+1/2'
  4  'y, -x, -z+1/2'
  5  '-x, -y, z'
  6  'x, y, -z'
  7  'y, -x, z+1/2'
  8  '-y, x, -z+1/2'
  9  'x, -y, -z'
  10  '-x, y, z'
  11  '-y, -x, -z+1/2'
  12  'y, x, z+1/2'
  13  '-x, y, -z'
  14  'x, -y, z'
  15  'y, x, -z+1/2'
  16  '-y, -x, z+1/2'
loop_
 _atom_site_type_symbol
 _atom_site_label
 _atom_site_symmetry_multiplicity
 _atom_site_fract_x
 _atom_site_fract_y
 _atom_site_fract_z
 _atom_site_occupancy
  Cu  Cu0  2  0.00000000  0.50000000  0.50000000  1
  Cu  Cu1  2  0.50000000  0.50000000  0.00000000  1
  Au  Au2  2  0.00000000  0.00000000  0.25000000  1
  Au  Au3  2  0.00000000  0.50000000  0.00000000  1
# generated using pymatgen
data_ID_67
_symmetry_space_group_name_H-M   Ia-3d
_cell_length_a   10.89932069
_cell_length_b   10.89932069
_cell_length_c   10.89932069
_cell_angle_alpha   90.00000000
_cell_angle_beta   90.00000000
_cell_angle_gamma   90.00000000
_symmetry_Int_Tables_number   230
_chemical_formula_structural   CuAu
_cell_volume   1294.78689015
_cell_formula_units_Z   16
loop_
 _symmetry_equiv_pos_site_id
 _symmetry_equiv_pos_as_xyz
  1  'x, y, z'
  2  '-x, -y, -z'
  3  '-y+1/4, x+3/4, z+1/4'
  4  'y+1/4, -x+3/4, -z+1/4'
  5  '-x+1/2, -y, z+1/2'
  6  'x+1/2, y, -z+1/2'
  7  'y+1/4, -x+1/4, z+3/4'
  8  '-y+1/4, x+1/4, -z+3/4'
  9  'x, -y, -z+1/2'
  10  '-x, y, z+1/2'
  11  '-y+1/4, -x+1/4, -z+1/4'
  12  'y+1/4, x+1/4, z+1/4'
  13  '-x+1/2, y, -z'
  14  'x+1/2, -y, z'
  15  'y+1/4, x+3/4, -z+3/4'
  16  '-y+1/4, -x+3/4, z+3/4'
  17  'z, x, y'
  18  '-z, -x, -y'
  19  'z+1/4, -y+1/4, x+3/4'
  20  '-z+1/4, y+1/4, -x+3/4'
  21  'z+1/2, -x+1/2, -y'
  22  '-z+1/2, x+1/2, y'
  23  'z+3/4, y+1/4, -x+1/4'
  24  '-z+3/4, -y+1/4, x+1/4'
  25  '-z+1/2, x, -y'
  26  'z+1/2, -x, y'
  27  '-z+1/4, -y+1/4, -x+1/4'
  28  'z+1/4, y+1/4, x+1/4'
  29  '-z, -x+1/2, y'
  30  'z, x+1/2, -y'
  31  '-z+3/4, y+1/4, x+3/4'
  32  'z+3/4, -y+1/4, -x+3/4'
  33  'y, z, x'
  34  '-y, -z, -x'
  35  'x+3/4, z+1/4, -y+1/4'
  36  '-x+3/4, -z+1/4, y+1/4'
  37  '-y, z+1/2, -x+1/2'
  38  'y, -z+1/2, x+1/2'
  39  '-x+1/4, z+3/4, y+1/4'
  40  'x+1/4, -z+3/4, -y+1/4'
  41  '-y, -z+1/2, x'
  42  'y, z+1/2, -x'
  43  '-x+1/4, -z+1/4, -y+1/4'
  44  'x+1/4, z+1/4, y+1/4'
  45  'y, -z, -x+1/2'
  46  '-y, z, x+1/2'
  47  'x+3/4, -z+3/4, y+1/4'
  48  '-x+3/4, z+3/4, -y+1/4'
  49  'x+1/2, y+1/2, z+1/2'
  50  '-x+1/2, -y+1/2, -z+1/2'
  51  '-y+3/4, x+1/4, z+3/4'
  52  'y+3/4, -x+1/4, -z+3/4'
  53  '-x, -y+1/2, z'
  54  'x, y+1/2, -z'
  55  'y+3/4, -x+3/4, z+1/4'
  56  '-y+3/4, x+3/4, -z+1/4'
  57  'x+1/2, -y+1/2, -z'
  58  '-x+1/2, y+1/2, z'
  59  '-y+3/4, -x+3/4, -z+3/4'
  60  'y+3/4, x+3/4, z+3/4'
  61  '-x, y+1/2, -z+1/2'
  62  'x, -y+1/2, z+1/2'
  63  'y+3/4, x+1/4, -z+1/4'
  64  '-y+3/4, -x+1/4, z+1/4'
  65  'z+1/2, x+1/2, y+1/2'
  66  '-z+1/2, -x+1/2, -y+1/2'
  67  'z+3/4, -y+3/4, x+1/4'
  68  '-z+3/4, y+3/4, -x+1/4'
  69  'z, -x, -y+1/2'
  70  '-z, x, y+1/2'
  71  'z+1/4, y+3/4, -x+3/4'
  72  '-z+1/4, -y+3/4, x+3/4'
  73  '-z, x+1/2, -y+1/2'
  74  'z, -x+1/2, y+1/2'
  75  '-z+3/4, -y+3/4, -x+3/4'
  76  'z+3/4, y+3/4, x+3/4'
  77  '-z+1/2, -x, y+1/2'
  78  'z+1/2, x, -y+1/2'
  79  '-z+1/4, y+3/4, x+1/4'
  80  'z+1/4, -y+3/4, -x+1/4'
  81  'y+1/2, z+1/2, x+1/2'
  82  '-y+1/2, -z+1/2, -x+1/2'
  83  'x+1/4, z+3/4, -y+3/4'
  84  '-x+1/4, -z+3/4, y+3/4'
  85  '-y+1/2, z, -x'
  86  'y+1/2, -z, x'
  87  '-x+3/4, z+1/4, y+3/4'
  88  'x+3/4, -z+1/4, -y+3/4'
  89  '-y+1/2, -z, x+1/2'
  90  'y+1/2, z, -x+1/2'
  91  '-x+3/4, -z+3/4, -y+3/4'
  92  'x+3/4, z+3/4, y+3/4'
  93  'y+1/2, -z+1/2, -x'
  94  '-y+1/2, z+1/2, x'
  95  'x+1/4, -z+1/4, y+3/4'
  96  '-x+1/4, z+1/4, -y+3/4'
loop_
 _atom_site_type_symbol
 _atom_site_label
 _atom_site_symmetry_multiplicity
 _atom_site_fract_x
 _atom_site_fract_y
 _atom_site_fract_z
 _atom_site_occupancy
  Cu  Cu0  16  0.12500000  0.12500000  0.12500000  1
  Au  Au1  16  0.00000000  0.00000000  0.00000000  1
# generated using pymatgen
data_ID_68
_symmetry_space_group_name_H-M   P4_122
_cell_length_a   5.52356966
_cell_length_b   5.52356966
_cell_length_c   8.32558950
_cell_angle_alpha   90.00000000
_cell_angle_beta   90.00000000
_cell_angle_gamma   90.00000000
_symmetry_Int_Tables_number   91
_chemical_formula_structural   CuAu
_cell_volume   254.01225197
_cell_formula_units_Z   8
loop_
 _symmetry_equiv_pos_site_id
 _symmetry_equiv_pos_as_xyz
  1  'x, y, z'
  2  '-y, x, z+1/4'
  3  '-x, -y, z+1/2'
  4  'y, -x, z+3/4'
  5  'x, -y, -z+1/2'
  6  '-y, -x, -z+1/4'
  7  '-x, y, -z'
  8  'y, x, -z+3/4'
loop_
 _atom_site_type_symbol
 _atom_site_label
 _atom_site_symmetry_multiplicity
 _atom_site_fract_x
 _atom_site_fract_y
 _atom_site_fract_z
 _atom_site_occupancy
  Cu  Cu0  8  0.09375402  0.20968145  0.13607918  1
  Au  Au1  4  0.23401543  0.50000000  0.75000000  1
  Au  Au2  4  0.33581365  0.33581365  0.37500000  1
# generated using pymatgen
data_ID_69
_symmetry_space_group_name_H-M   I4_1/amd
_cell_length_a   16.24758786
_cell_length_b   16.24758786
_cell_length_c   4.69458785
_cell_angle_alpha   90.00000000
_cell_angle_beta   90.00000000
_cell_angle_gamma   90.00000000
_symmetry_Int_Tables_number   141
_chemical_formula_structural   CuAu
_cell_volume   1239.29660082
_cell_formula_units_Z   16
loop_
 _symmetry_equiv_pos_site_id
 _symmetry_equiv_pos_as_xyz
  1  'x, y, z'
  2  '-y, x+1/2, z+1/4'
  3  '-x+1/2, -y+1/2, z+1/2'
  4  'y+1/2, -x, z+3/4'
  5  'x, -y+1/2, -z+1/4'
  6  '-y, -x, -z'
  7  '-x+1/2, y, -z+3/4'
  8  'y+1/2, x+1/2, -z+1/2'
  9  '-x, -y+1/2, -z+1/4'
  10  'y, -x, -z'
  11  'x+1/2, y, -z+3/4'
  12  '-y+1/2, x+1/2, -z+1/2'
  13  '-x, y, z'
  14  'y, x+1/2, z+1/4'
  15  'x+1/2, -y+1/2, z+1/2'
  16  '-y+1/2, -x, z+3/4'
  17  'x+1/2, y+1/2, z+1/2'
  18  '-y+1/2, x, z+3/4'
  19  '-x, -y, z'
  20  'y, -x+1/2, z+1/4'
  21  'x+1/2, -y, -z+3/4'
  22  '-y+1/2, -x+1/2, -z+1/2'
  23  '-x, y+1/2, -z+1/4'
  24  'y, x, -z'
  25  '-x+1/2, -y, -z+3/4'
  26  'y+1/2, -x+1/2, -z+1/2'
  27  'x, y+1/2, -z+1/4'
  28  '-y, x, -z'
  29  '-x+1/2, y+1/2, z+1/2'
  30  'y+1/2, x, z+3/4'
  31  'x, -y, z'
  32  '-y, -x+1/2, z+1/4'
loop_
 _atom_site_type_symbol
 _atom_site_label
 _atom_site_symmetry_multiplicity
 _atom_site_fract_x
 _atom_site_fract_y
 _atom_site_fract_z
 _atom_site_occupancy
  Cu  Cu0  8  0.00000000  0.25000000  0.12500000  1
  Cu  Cu1  8  0.00000000  0.25000000  0.62500000  1
  Au  Au2  16  0.15259480  0.75000000  0.62500000  1
# generated using pymatgen
data_ID_70
_symmetry_space_group_name_H-M   P4_2/mmc
_cell_length_a   5.55547683
_cell_length_b   5.55547683
_cell_length_c   3.69024053
_cell_angle_alpha   90.00000000
_cell_angle_beta   90.00000000
_cell_angle_gamma   90.00000000
_symmetry_Int_Tables_number   131
_chemical_formula_structural   CuAu
_cell_volume   113.89308494
_cell_formula_units_Z   4
loop_
 _symmetry_equiv_pos_site_id
 _symmetry_equiv_pos_as_xyz
  1  'x, y, z'
  2  '-x, -y, -z'
  3  '-y, x, z+1/2'
  4  'y, -x, -z+1/2'
  5  '-x, -y, z'
  6  'x, y, -z'
  7  'y, -x, z+1/2'
  8  '-y, x, -z+1/2'
  9  'x, -y, -z'
  10  '-x, y, z'
  11  '-y, -x, -z+1/2'
  12  'y, x, z+1/2'
  13  '-x, y, -z'
  14  'x, -y, z'
  15  'y, x, -z+1/2'
  16  '-y, -x, z+1/2'
loop_
 _atom_site_type_symbol
 _atom_site_label
 _atom_site_symmetry_multiplicity
 _atom_site_fract_x
 _atom_site_fract_y
 _atom_site_fract_z
 _atom_site_occupancy
  Cu  Cu0  4  0.00000000  0.23514841  0.50000000  1
  Au  Au1  4  0.23865931  0.50000000  0.00000000  1
# generated using pymatgen
data_ID_71
_symmetry_space_group_name_H-M   I-43d
_cell_length_a   10.89725194
_cell_length_b   10.89725194
_cell_length_c   10.89725194
_cell_angle_alpha   90.00000000
_cell_angle_beta   90.00000000
_cell_angle_gamma   90.00000000
_symmetry_Int_Tables_number   220
_chemical_formula_structural   CuAu
_cell_volume   1294.04975571
_cell_formula_units_Z   16
loop_
 _symmetry_equiv_pos_site_id
 _symmetry_equiv_pos_as_xyz
  1  'x, y, z'
  2  'y+1/4, -x+3/4, -z+1/4'
  3  '-x, -y+1/2, z'
  4  '-y+3/4, x+3/4, -z+1/4'
  5  'x, -y, -z+1/2'
  6  'y+1/4, x+1/4, z+1/4'
  7  '-x, y+1/2, -z+1/2'
  8  '-y+3/4, -x+1/4, z+1/4'
  9  'z, x, y'
  10  '-z+1/4, y+1/4, -x+3/4'
  11  'z, -x, -y+1/2'
  12  '-z+1/4, -y+3/4, x+3/4'
  13  '-z+1/2, x, -y'
  14  'z+1/4, y+1/4, x+1/4'
  15  '-z+1/2, -x, y+1/2'
  16  'z+1/4, -y+3/4, -x+1/4'
  17  'y, z, x'
  18  '-x+3/4, -z+1/4, y+1/4'
  19  '-y+1/2, z, -x'
  20  'x+3/4, -z+1/4, -y+3/4'
  21  '-y, -z+1/2, x'
  22  'x+1/4, z+1/4, y+1/4'
  23  'y+1/2, -z+1/2, -x'
  24  '-x+1/4, z+1/4, -y+3/4'
  25  'x+1/2, y+1/2, z+1/2'
  26  'y+3/4, -x+1/4, -z+3/4'
  27  '-x+1/2, -y, z+1/2'
  28  '-y+1/4, x+1/4, -z+3/4'
  29  'x+1/2, -y+1/2, -z'
  30  'y+3/4, x+3/4, z+3/4'
  31  '-x+1/2, y, -z'
  32  '-y+1/4, -x+3/4, z+3/4'
  33  'z+1/2, x+1/2, y+1/2'
  34  '-z+3/4, y+3/4, -x+1/4'
  35  'z+1/2, -x+1/2, -y'
  36  '-z+3/4, -y+1/4, x+1/4'
  37  '-z, x+1/2, -y+1/2'
  38  'z+3/4, y+3/4, x+3/4'
  39  '-z, -x+1/2, y'
  40  'z+3/4, -y+1/4, -x+3/4'
  41  'y+1/2, z+1/2, x+1/2'
  42  '-x+1/4, -z+3/4, y+3/4'
  43  '-y, z+1/2, -x+1/2'
  44  'x+1/4, -z+3/4, -y+1/4'
  45  '-y+1/2, -z, x+1/2'
  46  'x+3/4, z+3/4, y+3/4'
  47  'y, -z, -x+1/2'
  48  '-x+3/4, z+3/4, -y+1/4'
loop_
 _atom_site_type_symbol
 _atom_site_label
 _atom_site_symmetry_multiplicity
 _atom_site_fract_x
 _atom_site_fract_y
 _atom_site_fract_z
 _atom_site_occupancy
  Cu  Cu0  16  0.10350524  0.39649476  0.60350524  1
  Au  Au1  16  0.02160444  0.02160444  0.02160444  1
# generated using pymatgen
data_ID_72
_symmetry_space_group_name_H-M   R-3c
_cell_length_a   10.97448620
_cell_length_b   10.97448620
_cell_length_c   9.38469283
_cell_angle_alpha   90.00000000
_cell_angle_beta   90.00000000
_cell_angle_gamma   120.00000000
_symmetry_Int_Tables_number   167
_chemical_formula_structural   CuAu
_cell_volume   978.85663156
_cell_formula_units_Z   24
loop_
 _symmetry_equiv_pos_site_id
 _symmetry_equiv_pos_as_xyz
  1  'x, y, z'
  2  '-x, -y, -z'
  3  '-y, x-y, z'
  4  'y, -x+y, -z'
  5  '-x+y, -x, z'
  6  'x-y, x, -z'
  7  'y, x, -z+1/2'
  8  '-y, -x, z+1/2'
  9  'x-y, -y, -z+1/2'
  10  '-x+y, y, z+1/2'
  11  '-x, -x+y, -z+1/2'
  12  'x, x-y, z+1/2'
  13  'x+2/3, y+1/3, z+1/3'
  14  '-x+2/3, -y+1/3, -z+1/3'
  15  '-y+2/3, x-y+1/3, z+1/3'
  16  'y+2/3, -x+y+1/3, -z+1/3'
  17  '-x+y+2/3, -x+1/3, z+1/3'
  18  'x-y+2/3, x+1/3, -z+1/3'
  19  'y+2/3, x+1/3, -z+5/6'
  20  '-y+2/3, -x+1/3, z+5/6'
  21  'x-y+2/3, -y+1/3, -z+5/6'
  22  '-x+y+2/3, y+1/3, z+5/6'
  23  '-x+2/3, -x+y+1/3, -z+5/6'
  24  'x+2/3, x-y+1/3, z+5/6'
  25  'x+1/3, y+2/3, z+2/3'
  26  '-x+1/3, -y+2/3, -z+2/3'
  27  '-y+1/3, x-y+2/3, z+2/3'
  28  'y+1/3, -x+y+2/3, -z+2/3'
  29  '-x+y+1/3, -x+2/3, z+2/3'
  30  'x-y+1/3, x+2/3, -z+2/3'
  31  'y+1/3, x+2/3, -z+1/6'
  32  '-y+1/3, -x+2/3, z+1/6'
  33  'x-y+1/3, -y+2/3, -z+1/6'
  34  '-x+y+1/3, y+2/3, z+1/6'
  35  '-x+1/3, -x+y+2/3, -z+1/6'
  36  'x+1/3, x-y+2/3, z+1/6'
loop_
 _atom_site_type_symbol
 _atom_site_label
 _atom_site_symmetry_multiplicity
 _atom_site_fract_x
 _atom_site_fract_y
 _atom_site_fract_z
 _atom_site_occupancy
  Cu  Cu0  18  0.00000000  0.22735108  0.75000000  1
  Cu  Cu1  6  0.00000000  0.00000000  0.25000000  1
  Au  Au2  18  0.00000000  0.23176778  0.25000000  1
  Au  Au3  6  0.00000000  0.00000000  0.00000000  1
# generated using pymatgen
data_ID_73
_symmetry_space_group_name_H-M   P6_3/mmc
_cell_length_a   4.83519452
_cell_length_b   4.83519452
_cell_length_c   13.42053963
_cell_angle_alpha   90.00000000
_cell_angle_beta   90.00000000
_cell_angle_gamma   120.00000000
_symmetry_Int_Tables_number   194
_chemical_formula_structural   CuAu
_cell_volume   271.72432026
_cell_formula_units_Z   8
loop_
 _symmetry_equiv_pos_site_id
 _symmetry_equiv_pos_as_xyz
  1  'x, y, z'
  2  '-x, -y, -z'
  3  'x-y, x, z+1/2'
  4  '-x+y, -x, -z+1/2'
  5  '-y, x-y, z'
  6  'y, -x+y, -z'
  7  '-x, -y, z+1/2'
  8  'x, y, -z+1/2'
  9  '-x+y, -x, z'
  10  'x-y, x, -z'
  11  'y, -x+y, z+1/2'
  12  '-y, x-y, -z+1/2'
  13  '-y, -x, -z+1/2'
  14  'y, x, z+1/2'
  15  '-x, -x+y, -z'
  16  'x, x-y, z'
  17  '-x+y, y, -z+1/2'
  18  'x-y, -y, z+1/2'
  19  'y, x, -z'
  20  '-y, -x, z'
  21  'x, x-y, -z+1/2'
  22  '-x, -x+y, z+1/2'
  23  'x-y, -y, -z'
  24  '-x+y, y, z'
loop_
 _atom_site_type_symbol
 _atom_site_label
 _atom_site_symmetry_multiplicity
 _atom_site_fract_x
 _atom_site_fract_y
 _atom_site_fract_z
 _atom_site_occupancy
  Cu  Cu0  6  0.16911362  0.33822723  0.75000000  1
  Cu  Cu1  2  0.33333333  0.66666667  0.25000000  1
  Au  Au2  4  0.00000000  0.00000000  0.09274891  1
  Au  Au3  4  0.33333333  0.66666667  0.48437605  1
# generated using pymatgen
data_ID_74
_symmetry_space_group_name_H-M   P4/mmm
_cell_length_a   10.06979040
_cell_length_b   10.06979040
_cell_length_c   2.52887791
_cell_angle_alpha   90.00000000
_cell_angle_beta   90.00000000
_cell_angle_gamma   90.00000000
_symmetry_Int_Tables_number   123
_chemical_formula_structural   CuAu
_cell_volume   256.42993654
_cell_formula_units_Z   4
loop_
 _symmetry_equiv_pos_site_id
 _symmetry_equiv_pos_as_xyz
  1  'x, y, z'
  2  '-x, -y, -z'
  3  '-y, x, z'
  4  'y, -x, -z'
  5  '-x, -y, z'
  6  'x, y, -z'
  7  'y, -x, z'
  8  '-y, x, -z'
  9  'x, -y, -z'
  10  '-x, y, z'
  11  '-y, -x, -z'
  12  'y, x, z'
  13  '-x, y, -z'
  14  'x, -y, z'
  15  'y, x, -z'
  16  '-y, -x, z'
loop_
 _atom_site_type_symbol
 _atom_site_label
 _atom_site_symmetry_multiplicity
 _atom_site_fract_x
 _atom_site_fract_y
 _atom_site_fract_z
 _atom_site_occupancy
  Cu  Cu0  4  0.24998603  0.50000000  0.50000000  1
  Au  Au1  2  0.00000000  0.50000000  0.50000000  1
  Au  Au2  1  0.00000000  0.00000000  0.00000000  1
  Au  Au3  1  0.50000000  0.50000000  0.50000000  1
# generated using pymatgen
data_ID_75
_symmetry_space_group_name_H-M   P6_3/mmc
_cell_length_a   8.50479747
_cell_length_b   8.50479747
_cell_length_c   9.92315271
_cell_angle_alpha   90.00000000
_cell_angle_beta   90.00000000
_cell_angle_gamma   120.00000000
_symmetry_Int_Tables_number   194
_chemical_formula_structural   CuAu
_cell_volume   621.59606739
_cell_formula_units_Z   8
loop_
 _symmetry_equiv_pos_site_id
 _symmetry_equiv_pos_as_xyz
  1  'x, y, z'
  2  '-x, -y, -z'
  3  'x-y, x, z+1/2'
  4  '-x+y, -x, -z+1/2'
  5  '-y, x-y, z'
  6  'y, -x+y, -z'
  7  '-x, -y, z+1/2'
  8  'x, y, -z+1/2'
  9  '-x+y, -x, z'
  10  'x-y, x, -z'
  11  'y, -x+y, z+1/2'
  12  '-y, x-y, -z+1/2'
  13  '-y, -x, -z+1/2'
  14  'y, x, z+1/2'
  15  '-x, -x+y, -z'
  16  'x, x-y, z'
  17  '-x+y, y, -z+1/2'
  18  'x-y, -y, z+1/2'
  19  'y, x, -z'
  20  '-y, -x, z'
  21  'x, x-y, -z+1/2'
  22  '-x, -x+y, z+1/2'
  23  'x-y, -y, -z'
  24  '-x+y, y, z'
loop_
 _atom_site_type_symbol
 _atom_site_label
 _atom_site_symmetry_multiplicity
 _atom_site_fract_x
 _atom_site_fract_y
 _atom_site_fract_z
 _atom_site_occupancy
  Cu  Cu0  6  0.00000000  0.50000000  0.00000000  1
  Cu  Cu1  2  0.33333333  0.66666667  0.75000000  1
  Au  Au2  4  0.33333333  0.66666667  0.99730607  1
  Au  Au3  2  0.00000000  0.00000000  0.25000000  1
  Au  Au4  2  0.33333333  0.66666667  0.25000000  1
# generated using pymatgen
data_ID_76
_symmetry_space_group_name_H-M   Cmce
_cell_length_a   10.98633567
_cell_length_b   6.91912192
_cell_length_c   6.42114017
_cell_angle_alpha   90.00000000
_cell_angle_beta   90.00000000
_cell_angle_gamma   90.00000000
_symmetry_Int_Tables_number   64
_chemical_formula_structural   CuAu
_cell_volume   488.10808130
_cell_formula_units_Z   16
loop_
 _symmetry_equiv_pos_site_id
 _symmetry_equiv_pos_as_xyz
  1  'x, y, z'
  2  '-x, -y, -z'
  3  '-x+1/2, -y, z+1/2'
  4  'x+1/2, y, -z+1/2'
  5  'x, -y, -z'
  6  '-x, y, z'
  7  '-x+1/2, y, -z+1/2'
  8  'x+1/2, -y, z+1/2'
  9  'x+1/2, y+1/2, z'
  10  '-x+1/2, -y+1/2, -z'
  11  '-x, -y+1/2, z+1/2'
  12  'x, y+1/2, -z+1/2'
  13  'x+1/2, -y+1/2, -z'
  14  '-x+1/2, y+1/2, z'
  15  '-x, y+1/2, -z+1/2'
  16  'x, -y+1/2, z+1/2'
loop_
 _atom_site_type_symbol
 _atom_site_label
 _atom_site_symmetry_multiplicity
 _atom_site_fract_x
 _atom_site_fract_y
 _atom_site_fract_z
 _atom_site_occupancy
  Cu  Cu0  8  0.00000000  0.13752139  0.32554485  1
  Cu  Cu1  8  0.11465477  0.00000000  0.00000000  1
  Au  Au2  16  0.15671257  0.15510223  0.62361615  1
# generated using pymatgen
data_ID_77
_symmetry_space_group_name_H-M   P6_3cm
_cell_length_a   5.81824883
_cell_length_b   5.81824883
_cell_length_c   9.89817532
_cell_angle_alpha   90.00000000
_cell_angle_beta   90.00000000
_cell_angle_gamma   120.00000000
_symmetry_Int_Tables_number   185
_chemical_formula_structural   CuAu
_cell_volume   290.18192411
_cell_formula_units_Z   8
loop_
 _symmetry_equiv_pos_site_id
 _symmetry_equiv_pos_as_xyz
  1  'x, y, z'
  2  'x-y, x, z+1/2'
  3  '-y, x-y, z'
  4  '-x, -y, z+1/2'
  5  '-x+y, -x, z'
  6  'y, -x+y, z+1/2'
  7  'y, x, z'
  8  'x, x-y, z+1/2'
  9  'x-y, -y, z'
  10  '-y, -x, z+1/2'
  11  '-x, -x+y, z'
  12  '-x+y, y, z+1/2'
loop_
 _atom_site_type_symbol
 _atom_site_label
 _atom_site_symmetry_multiplicity
 _atom_site_fract_x
 _atom_site_fract_y
 _atom_site_fract_z
 _atom_site_occupancy
  Cu  Cu0  4  0.33333333  0.66666667  0.07427913  1
  Cu  Cu1  4  0.33333333  0.66666667  0.81286454  1
  Au  Au2  6  0.00000000  0.26079638  0.44354866  1
  Au  Au3  2  0.00000000  0.00000000  0.19284785  1
# generated using pymatgen
data_ID_78
_symmetry_space_group_name_H-M   Pma2
_cell_length_a   5.51381521
_cell_length_b   7.48073352
_cell_length_c   5.50207600
_cell_angle_alpha   90.00000000
_cell_angle_beta   90.00000000
_cell_angle_gamma   90.00000000
_symmetry_Int_Tables_number   28
_chemical_formula_structural   CuAu
_cell_volume   226.94623228
_cell_formula_units_Z   8
loop_
 _symmetry_equiv_pos_site_id
 _symmetry_equiv_pos_as_xyz
  1  'x, y, z'
  2  '-x, -y, z'
  3  '-x+1/2, y, z'
  4  'x+1/2, -y, z'
loop_
 _atom_site_type_symbol
 _atom_site_label
 _atom_site_symmetry_multiplicity
 _atom_site_fract_x
 _atom_site_fract_y
 _atom_site_fract_z
 _atom_site_occupancy
  Cu  Cu0  2  0.00000000  0.00000000  0.80880825  1
  Cu  Cu1  2  0.00000000  0.50000000  0.29939533  1
  Cu  Cu2  2  0.00000000  0.50000000  0.82019663  1
  Cu  Cu3  2  0.25000000  0.74263386  0.05701107  1
  Au  Au4  2  0.00000000  0.00000000  0.30289310  1
  Au  Au5  2  0.25000000  0.25824084  0.05185651  1
  Au  Au6  2  0.25000000  0.26420949  0.56099737  1
  Au  Au7  2  0.25000000  0.73715754  0.56840961  1
# generated using pymatgen
data_ID_79
_symmetry_space_group_name_H-M   P3
_cell_length_a   7.15127292
_cell_length_b   7.15127292
_cell_length_c   5.24465552
_cell_angle_alpha   90.00000000
_cell_angle_beta   90.00000000
_cell_angle_gamma   120.00000000
_symmetry_Int_Tables_number   143
_chemical_formula_structural   CuAu
_cell_volume   232.28133026
_cell_formula_units_Z   8
loop_
 _symmetry_equiv_pos_site_id
 _symmetry_equiv_pos_as_xyz
  1  'x, y, z'
  2  '-y, x-y, z'
  3  '-x+y, -x, z'
loop_
 _atom_site_type_symbol
 _atom_site_label
 _atom_site_symmetry_multiplicity
 _atom_site_fract_x
 _atom_site_fract_y
 _atom_site_fract_z
 _atom_site_occupancy
  Cu  Cu0  3  0.33444638  0.29095543  0.62149517  1
  Cu  Cu1  3  0.37042759  0.36757402  0.11059682  1
  Cu  Cu2  1  0.33333333  0.66666667  0.83765537  1
  Cu  Cu3  1  0.66666667  0.33333333  0.85803922  1
  Au  Au4  3  0.00797157  0.27829250  0.92730398  1
  Au  Au5  3  0.09715944  0.42356920  0.42847181  1
  Au  Au6  1  0.00000000  0.00000000  0.32302660  1
  Au  Au7  1  0.66666667  0.33333333  0.35738684  1
# generated using pymatgen
data_ID_80
_symmetry_space_group_name_H-M   Cmme
_cell_length_a   7.62407034
_cell_length_b   8.99733141
_cell_length_c   10.14930007
_cell_angle_alpha   90.00000000
_cell_angle_beta   90.00000000
_cell_angle_gamma   90.00000000
_symmetry_Int_Tables_number   67
_chemical_formula_structural   CuAu
_cell_volume   696.20430604
_cell_formula_units_Z   16
loop_
 _symmetry_equiv_pos_site_id
 _symmetry_equiv_pos_as_xyz
  1  'x, y, z'
  2  '-x, -y, -z'
  3  '-x+1/2, -y, z'
  4  'x+1/2, y, -z'
  5  'x, -y, -z'
  6  '-x, y, z'
  7  '-x+1/2, y, -z'
  8  'x+1/2, -y, z'
  9  'x+1/2, y+1/2, z'
  10  '-x+1/2, -y+1/2, -z'
  11  '-x, -y+1/2, z'
  12  'x, y+1/2, -z'
  13  'x+1/2, -y+1/2, -z'
  14  '-x+1/2, y+1/2, z'
  15  '-x, y+1/2, -z'
  16  'x, -y+1/2, z'
loop_
 _atom_site_type_symbol
 _atom_site_label
 _atom_site_symmetry_multiplicity
 _atom_site_fract_x
 _atom_site_fract_y
 _atom_site_fract_z
 _atom_site_occupancy
  Cu  Cu0  8  0.00000000  0.11379188  0.39294006  1
  Cu  Cu1  4  0.25000000  0.00000000  0.00000000  1
  Cu  Cu2  4  0.25000000  0.00000000  0.50000000  1
  Au  Au3  8  0.17546365  0.25000000  0.62084881  1
  Au  Au4  8  0.25000000  0.00000000  0.24365897  1
# generated using pymatgen
data_ID_81
_symmetry_space_group_name_H-M   Cc
_cell_length_a   6.65361966
_cell_length_b   11.57528642
_cell_length_c   6.89946702
_cell_angle_alpha   90.00000000
_cell_angle_beta   117.94470749
_cell_angle_gamma   90.00000000
_symmetry_Int_Tables_number   9
_chemical_formula_structural   CuAu
_cell_volume   469.42127979
_cell_formula_units_Z   16
loop_
 _symmetry_equiv_pos_site_id
 _symmetry_equiv_pos_as_xyz
  1  'x, y, z'
  2  'x, -y, z+1/2'
  3  'x+1/2, y+1/2, z'
  4  'x+1/2, -y+1/2, z+1/2'
loop_
 _atom_site_type_symbol
 _atom_site_label
 _atom_site_symmetry_multiplicity
 _atom_site_fract_x
 _atom_site_fract_y
 _atom_site_fract_z
 _atom_site_occupancy
  Cu  Cu0  4  0.06455452  0.40975520  0.87970750  1
  Cu  Cu1  4  0.07320605  0.79085250  0.53947313  1
  Cu  Cu2  4  0.24357510  0.14674547  0.45426385  1
  Cu  Cu3  4  0.45189530  0.28997232  0.14666787  1
  Au  Au4  4  0.01745248  0.00241769  0.58022534  1
  Au  Au5  4  0.15627939  0.38189453  0.28836897  1
  Au  Au6  4  0.31485386  0.32199166  0.72597697  1
  Au  Au7  4  0.35324620  0.08706972  0.95121885  1
# generated using pymatgen
data_ID_82
_symmetry_space_group_name_H-M   Pmma
_cell_length_a   5.44868467
_cell_length_b   3.84393196
_cell_length_c   5.40049510
_cell_angle_alpha   90.00000000
_cell_angle_beta   90.00000000
_cell_angle_gamma   90.00000000
_symmetry_Int_Tables_number   51
_chemical_formula_structural   CuAu
_cell_volume   113.10998472
_cell_formula_units_Z   4
loop_
 _symmetry_equiv_pos_site_id
 _symmetry_equiv_pos_as_xyz
  1  'x, y, z'
  2  '-x, -y, -z'
  3  '-x+1/2, -y, z'
  4  'x+1/2, y, -z'
  5  'x+1/2, -y, -z'
  6  '-x+1/2, y, z'
  7  '-x, y, -z'
  8  'x, -y, z'
loop_
 _atom_site_type_symbol
 _atom_site_label
 _atom_site_symmetry_multiplicity
 _atom_site_fract_x
 _atom_site_fract_y
 _atom_site_fract_z
 _atom_site_occupancy
  Cu  Cu0  2  0.00000000  0.00000000  0.50000000  1
  Cu  Cu1  2  0.25000000  0.50000000  0.24625710  1
  Au  Au2  2  0.00000000  0.00000000  0.00000000  1
  Au  Au3  2  0.25000000  0.50000000  0.72629158  1
# generated using pymatgen
data_ID_83
_symmetry_space_group_name_H-M   R3m
_cell_length_a   8.55973835
_cell_length_b   8.55973835
_cell_length_c   5.24845183
_cell_angle_alpha   90.00000000
_cell_angle_beta   90.00000000
_cell_angle_gamma   120.00000000
_symmetry_Int_Tables_number   160
_chemical_formula_structural   CuAu
_cell_volume   333.02959333
_cell_formula_units_Z   12
loop_
 _symmetry_equiv_pos_site_id
 _symmetry_equiv_pos_as_xyz
  1  'x, y, z'
  2  '-y, x-y, z'
  3  '-x+y, -x, z'
  4  '-y, -x, z'
  5  '-x+y, y, z'
  6  'x, x-y, z'
  7  'x+2/3, y+1/3, z+1/3'
  8  '-y+2/3, x-y+1/3, z+1/3'
  9  '-x+y+2/3, -x+1/3, z+1/3'
  10  '-y+2/3, -x+1/3, z+1/3'
  11  '-x+y+2/3, y+1/3, z+1/3'
  12  'x+2/3, x-y+1/3, z+1/3'
  13  'x+1/3, y+2/3, z+2/3'
  14  '-y+1/3, x-y+2/3, z+2/3'
  15  '-x+y+1/3, -x+2/3, z+2/3'
  16  '-y+1/3, -x+2/3, z+2/3'
  17  '-x+y+1/3, y+2/3, z+2/3'
  18  'x+1/3, x-y+2/3, z+2/3'
loop_
 _atom_site_type_symbol
 _atom_site_label
 _atom_site_symmetry_multiplicity
 _atom_site_fract_x
 _atom_site_fract_y
 _atom_site_fract_z
 _atom_site_occupancy
  Cu  Cu0  9  0.17006137  0.34012274  0.11262751  1
  Cu  Cu1  3  0.00000000  0.00000000  0.75187592  1
  Au  Au2  9  0.16964757  0.33929514  0.61163176  1
  Au  Au3  3  0.00000000  0.00000000  0.25490018  1
# generated using pymatgen
data_ID_84
_symmetry_space_group_name_H-M   Imma
_cell_length_a   5.45864860
_cell_length_b   7.79383856
_cell_length_c   5.36245266
_cell_angle_alpha   90.00000000
_cell_angle_beta   90.00000000
_cell_angle_gamma   90.00000000
_symmetry_Int_Tables_number   74
_chemical_formula_structural   CuAu
_cell_volume   228.13925265
_cell_formula_units_Z   8
loop_
 _symmetry_equiv_pos_site_id
 _symmetry_equiv_pos_as_xyz
  1  'x, y, z'
  2  '-x, -y, -z'
  3  '-x, -y+1/2, z'
  4  'x, y+1/2, -z'
  5  'x, -y, -z'
  6  '-x, y, z'
  7  '-x, y+1/2, -z'
  8  'x, -y+1/2, z'
  9  'x+1/2, y+1/2, z+1/2'
  10  '-x+1/2, -y+1/2, -z+1/2'
  11  '-x+1/2, -y, z+1/2'
  12  'x+1/2, y, -z+1/2'
  13  'x+1/2, -y+1/2, -z+1/2'
  14  '-x+1/2, y+1/2, z+1/2'
  15  '-x+1/2, y, -z+1/2'
  16  'x+1/2, -y, z+1/2'
loop_
 _atom_site_type_symbol
 _atom_site_label
 _atom_site_symmetry_multiplicity
 _atom_site_fract_x
 _atom_site_fract_y
 _atom_site_fract_z
 _atom_site_occupancy
  Cu  Cu0  4  0.00000000  0.00000000  0.50000000  1
  Cu  Cu1  4  0.25000000  0.25000000  0.75000000  1
  Au  Au2  4  0.00000000  0.00000000  0.00000000  1
  Au  Au3  4  0.25000000  0.25000000  0.25000000  1
# generated using pymatgen
data_ID_85
_symmetry_space_group_name_H-M   P4/mmm
_cell_length_a   4.92371230
_cell_length_b   4.92371230
_cell_length_c   2.61623679
_cell_angle_alpha   90.00000000
_cell_angle_beta   90.00000000
_cell_angle_gamma   90.00000000
_symmetry_Int_Tables_number   123
_chemical_formula_structural   CuAu
_cell_volume   63.42527876
_cell_formula_units_Z   2
loop_
 _symmetry_equiv_pos_site_id
 _symmetry_equiv_pos_as_xyz
  1  'x, y, z'
  2  '-x, -y, -z'
  3  '-y, x, z'
  4  'y, -x, -z'
  5  '-x, -y, z'
  6  'x, y, -z'
  7  'y, -x, z'
  8  '-y, x, -z'
  9  'x, -y, -z'
  10  '-x, y, z'
  11  '-y, -x, -z'
  12  'y, x, z'
  13  '-x, y, -z'
  14  'x, -y, z'
  15  'y, x, -z'
  16  '-y, -x, z'
loop_
 _atom_site_type_symbol
 _atom_site_label
 _atom_site_symmetry_multiplicity
 _atom_site_fract_x
 _atom_site_fract_y
 _atom_site_fract_z
 _atom_site_occupancy
  Cu  Cu0  1  0.00000000  0.00000000  0.00000000  1
  Cu  Cu1  1  0.50000000  0.50000000  0.50000000  1
  Au  Au2  2  0.00000000  0.50000000  0.50000000  1
# generated using pymatgen
data_ID_86
_symmetry_space_group_name_H-M   P4/mmm
_cell_length_a   5.03083729
_cell_length_b   5.03083729
_cell_length_c   9.89452825
_cell_angle_alpha   90.00000000
_cell_angle_beta   90.00000000
_cell_angle_gamma   90.00000000
_symmetry_Int_Tables_number   123
_chemical_formula_structural   CuAu
_cell_volume   250.42382006
_cell_formula_units_Z   4
loop_
 _symmetry_equiv_pos_site_id
 _symmetry_equiv_pos_as_xyz
  1  'x, y, z'
  2  '-x, -y, -z'
  3  '-y, x, z'
  4  'y, -x, -z'
  5  '-x, -y, z'
  6  'x, y, -z'
  7  'y, -x, z'
  8  '-y, x, -z'
  9  'x, -y, -z'
  10  '-x, y, z'
  11  '-y, -x, -z'
  12  'y, x, z'
  13  '-x, y, -z'
  14  'x, -y, z'
  15  'y, x, -z'
  16  '-y, -x, z'
loop_
 _atom_site_type_symbol
 _atom_site_label
 _atom_site_symmetry_multiplicity
 _atom_site_fract_x
 _atom_site_fract_y
 _atom_site_fract_z
 _atom_site_occupancy
  Cu  Cu0  2  0.00000000  0.00000000  0.25312709  1
  Cu  Cu1  2  0.00000000  0.50000000  0.50000000  1
  Au  Au2  2  0.00000000  0.50000000  0.00000000  1
  Au  Au3  1  0.00000000  0.00000000  0.00000000  1
  Au  Au4  1  0.00000000  0.00000000  0.50000000  1
# generated using pymatgen
data_ID_87
_symmetry_space_group_name_H-M   Cmcm
_cell_length_a   5.33414338
_cell_length_b   12.36842514
_cell_length_c   9.48631947
_cell_angle_alpha   90.00000000
_cell_angle_beta   90.00000000
_cell_angle_gamma   90.00000000
_symmetry_Int_Tables_number   63
_chemical_formula_structural   CuAu
_cell_volume   625.85948192
_cell_formula_units_Z   16
loop_
 _symmetry_equiv_pos_site_id
 _symmetry_equiv_pos_as_xyz
  1  'x, y, z'
  2  '-x, -y, -z'
  3  '-x, -y, z+1/2'
  4  'x, y, -z+1/2'
  5  'x, -y, -z'
  6  '-x, y, z'
  7  '-x, y, -z+1/2'
  8  'x, -y, z+1/2'
  9  'x+1/2, y+1/2, z'
  10  '-x+1/2, -y+1/2, -z'
  11  '-x+1/2, -y+1/2, z+1/2'
  12  'x+1/2, y+1/2, -z+1/2'
  13  'x+1/2, -y+1/2, -z'
  14  '-x+1/2, y+1/2, z'
  15  '-x+1/2, y+1/2, -z+1/2'
  16  'x+1/2, -y+1/2, z+1/2'
loop_
 _atom_site_type_symbol
 _atom_site_label
 _atom_site_symmetry_multiplicity
 _atom_site_fract_x
 _atom_site_fract_y
 _atom_site_fract_z
 _atom_site_occupancy
  Cu  Cu0  8  0.00000000  0.04380404  0.61583316  1
  Cu  Cu1  4  0.00000000  0.12508789  0.25000000  1
  Cu  Cu2  4  0.00000000  0.48641610  0.25000000  1
  Au  Au3  8  0.00000000  0.23358984  0.00781863  1
  Au  Au4  8  0.24944109  0.30673400  0.25000000  1
# generated using pymatgen
data_ID_88
_symmetry_space_group_name_H-M   Pmmn
_cell_length_a   4.34818746
_cell_length_b   7.90894230
_cell_length_c   7.25496441
_cell_angle_alpha   90.00000000
_cell_angle_beta   90.00000000
_cell_angle_gamma   90.00000000
_symmetry_Int_Tables_number   59
_chemical_formula_structural   CuAu
_cell_volume   249.49506061
_cell_formula_units_Z   8
loop_
 _symmetry_equiv_pos_site_id
 _symmetry_equiv_pos_as_xyz
  1  'x, y, z'
  2  '-x, -y, z'
  3  'x+1/2, -y+1/2, -z'
  4  '-x+1/2, y+1/2, -z'
  5  '-x+1/2, -y+1/2, -z'
  6  'x+1/2, y+1/2, -z'
  7  '-x, y, z'
  8  'x, -y, z'
loop_
 _atom_site_type_symbol
 _atom_site_label
 _atom_site_symmetry_multiplicity
 _atom_site_fract_x
 _atom_site_fract_y
 _atom_site_fract_z
 _atom_site_occupancy
  Cu  Cu0  4  0.00000000  0.16202568  0.25574844  1
  Cu  Cu1  2  0.00000000  0.00000000  0.92506621  1
  Cu  Cu2  2  0.00000000  0.50000000  0.27822036  1
  Au  Au3  4  0.00000000  0.17601981  0.60688223  1
  Au  Au4  4  0.00000000  0.33482246  0.94242594  1
# generated using pymatgen
data_ID_89
_symmetry_space_group_name_H-M   P4/mmm
_cell_length_a   3.06072932
_cell_length_b   3.06072932
_cell_length_c   2.96201808
_cell_angle_alpha   90.00000000
_cell_angle_beta   90.00000000
_cell_angle_gamma   90.00000000
_symmetry_Int_Tables_number   123
_chemical_formula_structural   CuAu
_cell_volume   27.74837488
_cell_formula_units_Z   1
loop_
 _symmetry_equiv_pos_site_id
 _symmetry_equiv_pos_as_xyz
  1  'x, y, z'
  2  '-x, -y, -z'
  3  '-y, x, z'
  4  'y, -x, -z'
  5  '-x, -y, z'
  6  'x, y, -z'
  7  'y, -x, z'
  8  '-y, x, -z'
  9  'x, -y, -z'
  10  '-x, y, z'
  11  '-y, -x, -z'
  12  'y, x, z'
  13  '-x, y, -z'
  14  'x, -y, z'
  15  'y, x, -z'
  16  '-y, -x, z'
loop_
 _atom_site_type_symbol
 _atom_site_label
 _atom_site_symmetry_multiplicity
 _atom_site_fract_x
 _atom_site_fract_y
 _atom_site_fract_z
 _atom_site_occupancy
  Cu  Cu0  1  0.50000000  0.50000000  0.50000000  1
  Au  Au1  1  0.00000000  0.00000000  0.00000000  1
# generated using pymatgen
data_ID_90
_symmetry_space_group_name_H-M   Cmm2
_cell_length_a   8.81365487
_cell_length_b   9.39517913
_cell_length_c   6.29602576
_cell_angle_alpha   90.00000000
_cell_angle_beta   90.00000000
_cell_angle_gamma   90.00000000
_symmetry_Int_Tables_number   35
_chemical_formula_structural   CuAu
_cell_volume   521.34786704
_cell_formula_units_Z   16
loop_
 _symmetry_equiv_pos_site_id
 _symmetry_equiv_pos_as_xyz
  1  'x, y, z'
  2  '-x, -y, z'
  3  '-x, y, z'
  4  'x, -y, z'
  5  'x+1/2, y+1/2, z'
  6  '-x+1/2, -y+1/2, z'
  7  '-x+1/2, y+1/2, z'
  8  'x+1/2, -y+1/2, z'
loop_
 _atom_site_type_symbol
 _atom_site_label
 _atom_site_symmetry_multiplicity
 _atom_site_fract_x
 _atom_site_fract_y
 _atom_site_fract_z
 _atom_site_occupancy
  Cu  Cu0  8  0.13885383  0.35891447  0.91776058  1
  Cu  Cu1  4  0.00000000  0.36832742  0.54851877  1
  Cu  Cu2  2  0.00000000  0.00000000  0.92090503  1
  Cu  Cu3  2  0.00000000  0.50000000  0.20162279  1
  Au  Au4  8  0.15120342  0.14513347  0.20505915  1
  Au  Au5  8  0.15534235  0.14070557  0.63351262  1
# generated using pymatgen
data_ID_91
_symmetry_space_group_name_H-M   C2/m
_cell_length_a   7.31229658
_cell_length_b   18.66094374
_cell_length_c   4.90514600
_cell_angle_alpha   90.00000000
_cell_angle_beta   114.90087201
_cell_angle_gamma   90.00000000
_symmetry_Int_Tables_number   12
_chemical_formula_structural   CuAu
_cell_volume   607.10615172
_cell_formula_units_Z   16
loop_
 _symmetry_equiv_pos_site_id
 _symmetry_equiv_pos_as_xyz
  1  'x, y, z'
  2  '-x, -y, -z'
  3  '-x, y, -z'
  4  'x, -y, z'
  5  'x+1/2, y+1/2, z'
  6  '-x+1/2, -y+1/2, -z'
  7  '-x+1/2, y+1/2, -z'
  8  'x+1/2, -y+1/2, z'
loop_
 _atom_site_type_symbol
 _atom_site_label
 _atom_site_symmetry_multiplicity
 _atom_site_fract_x
 _atom_site_fract_y
 _atom_site_fract_z
 _atom_site_occupancy
  Cu  Cu0  4  0.00000000  0.35185989  0.00000000  1
  Cu  Cu1  4  0.00000000  0.43606255  0.50000000  1
  Cu  Cu2  4  0.25000000  0.25000000  0.50000000  1
  Cu  Cu3  2  0.00000000  0.00000000  0.00000000  1
  Cu  Cu4  2  0.00000000  0.00000000  0.50000000  1
  Au  Au5  8  0.19512077  0.11946980  0.13709029  1
  Au  Au6  4  0.00000000  0.14455419  0.50000000  1
  Au  Au7  4  0.25000000  0.25000000  0.00000000  1
# generated using pymatgen
data_ID_92
_symmetry_space_group_name_H-M   R-3m
_cell_length_a   2.77183182
_cell_length_b   2.77183182
_cell_length_c   12.91698804
_cell_angle_alpha   90.00000000
_cell_angle_beta   90.00000000
_cell_angle_gamma   120.00000000
_symmetry_Int_Tables_number   166
_chemical_formula_structural   CuAu
_cell_volume   85.94599457
_cell_formula_units_Z   3
loop_
 _symmetry_equiv_pos_site_id
 _symmetry_equiv_pos_as_xyz
  1  'x, y, z'
  2  '-x, -y, -z'
  3  '-y, x-y, z'
  4  'y, -x+y, -z'
  5  '-x+y, -x, z'
  6  'x-y, x, -z'
  7  'y, x, -z'
  8  '-y, -x, z'
  9  'x-y, -y, -z'
  10  '-x+y, y, z'
  11  '-x, -x+y, -z'
  12  'x, x-y, z'
  13  'x+2/3, y+1/3, z+1/3'
  14  '-x+2/3, -y+1/3, -z+1/3'
  15  '-y+2/3, x-y+1/3, z+1/3'
  16  'y+2/3, -x+y+1/3, -z+1/3'
  17  '-x+y+2/3, -x+1/3, z+1/3'
  18  'x-y+2/3, x+1/3, -z+1/3'
  19  'y+2/3, x+1/3, -z+1/3'
  20  '-y+2/3, -x+1/3, z+1/3'
  21  'x-y+2/3, -y+1/3, -z+1/3'
  22  '-x+y+2/3, y+1/3, z+1/3'
  23  '-x+2/3, -x+y+1/3, -z+1/3'
  24  'x+2/3, x-y+1/3, z+1/3'
  25  'x+1/3, y+2/3, z+2/3'
  26  '-x+1/3, -y+2/3, -z+2/3'
  27  '-y+1/3, x-y+2/3, z+2/3'
  28  'y+1/3, -x+y+2/3, -z+2/3'
  29  '-x+y+1/3, -x+2/3, z+2/3'
  30  'x-y+1/3, x+2/3, -z+2/3'
  31  'y+1/3, x+2/3, -z+2/3'
  32  '-y+1/3, -x+2/3, z+2/3'
  33  'x-y+1/3, -y+2/3, -z+2/3'
  34  '-x+y+1/3, y+2/3, z+2/3'
  35  '-x+1/3, -x+y+2/3, -z+2/3'
  36  'x+1/3, x-y+2/3, z+2/3'
loop_
 _atom_site_type_symbol
 _atom_site_label
 _atom_site_symmetry_multiplicity
 _atom_site_fract_x
 _atom_site_fract_y
 _atom_site_fract_z
 _atom_site_occupancy
  Cu  Cu0  3  -0.00000000  -0.00000000  0.50000000  1
  Au  Au1  3  0.00000000  0.00000000  0.00000000  1
# generated using pymatgen
data_ID_93
_symmetry_space_group_name_H-M   P4
_cell_length_a   5.34253080
_cell_length_b   5.34253080
_cell_length_c   9.22061968
_cell_angle_alpha   90.00000000
_cell_angle_beta   90.00000000
_cell_angle_gamma   90.00000000
_symmetry_Int_Tables_number   75
_chemical_formula_structural   CuAu
_cell_volume   263.18078548
_cell_formula_units_Z   8
loop_
 _symmetry_equiv_pos_site_id
 _symmetry_equiv_pos_as_xyz
  1  'x, y, z'
  2  '-y, x, z'
  3  '-x, -y, z'
  4  'y, -x, z'
loop_
 _atom_site_type_symbol
 _atom_site_label
 _atom_site_symmetry_multiplicity
 _atom_site_fract_x
 _atom_site_fract_y
 _atom_site_fract_z
 _atom_site_occupancy
  Cu  Cu0  4  0.12097741  0.30200684  0.31309678  1
  Cu  Cu1  2  0.00000000  0.50000000  0.80027330  1
  Cu  Cu2  1  0.00000000  0.00000000  0.10392541  1
  Cu  Cu3  1  0.50000000  0.50000000  0.39232294  1
  Au  Au4  4  0.18299664  0.69059059  0.56866641  1
  Au  Au5  2  0.00000000  0.50000000  0.07132497  1
  Au  Au6  1  0.50000000  0.50000000  0.11531471  1
  Au  Au7  1  0.50000000  0.50000000  0.79756697  1
# generated using pymatgen
data_ID_94
_symmetry_space_group_name_H-M   P4/mmm
_cell_length_a   2.78972337
_cell_length_b   2.78972337
_cell_length_c   3.59555305
_cell_angle_alpha   90.00000000
_cell_angle_beta   90.00000000
_cell_angle_gamma   90.00000000
_symmetry_Int_Tables_number   123
_chemical_formula_structural   CuAu
_cell_volume   27.98259461
_cell_formula_units_Z   1
loop_
 _symmetry_equiv_pos_site_id
 _symmetry_equiv_pos_as_xyz
  1  'x, y, z'
  2  '-x, -y, -z'
  3  '-y, x, z'
  4  'y, -x, -z'
  5  '-x, -y, z'
  6  'x, y, -z'
  7  'y, -x, z'
  8  '-y, x, -z'
  9  'x, -y, -z'
  10  '-x, y, z'
  11  '-y, -x, -z'
  12  'y, x, z'
  13  '-x, y, -z'
  14  'x, -y, z'
  15  'y, x, -z'
  16  '-y, -x, z'
loop_
 _atom_site_type_symbol
 _atom_site_label
 _atom_site_symmetry_multiplicity
 _atom_site_fract_x
 _atom_site_fract_y
 _atom_site_fract_z
 _atom_site_occupancy
  Cu  Cu0  1  0.00000000  0.00000000  0.00000000  1
  Au  Au1  1  0.50000000  0.50000000  0.50000000  1
# generated using pymatgen
data_ID_95
_symmetry_space_group_name_H-M   Fd-3m
_cell_length_a   13.41880061
_cell_length_b   13.41880061
_cell_length_c   13.41880061
_cell_angle_alpha   90.00000000
_cell_angle_beta   90.00000000
_cell_angle_gamma   90.00000000
_symmetry_Int_Tables_number   227
_chemical_formula_structural   CuAu
_cell_volume   2416.24572792
_cell_formula_units_Z   32
loop_
 _symmetry_equiv_pos_site_id
 _symmetry_equiv_pos_as_xyz
  1  'x, y, z'
  2  '-y+1/4, x+1/4, z+1/4'
  3  '-x, -y+1/2, z+1/2'
  4  'y+3/4, -x+1/4, z+3/4'
  5  'x, -y, -z'
  6  '-y+1/4, -x+3/4, -z+3/4'
  7  '-x, y+1/2, -z+1/2'
  8  'y+3/4, x+3/4, -z+1/4'
  9  'z, x, y'
  10  'z+1/4, -y+1/4, x+1/4'
  11  'z+1/2, -x, -y+1/2'
  12  'z+3/4, y+3/4, -x+1/4'
  13  '-z, x, -y'
  14  '-z+3/4, -y+1/4, -x+3/4'
  15  '-z+1/2, -x, y+1/2'
  16  '-z+1/4, y+3/4, x+3/4'
  17  'y, z, x'
  18  'x+1/4, z+1/4, -y+1/4'
  19  '-y+1/2, z+1/2, -x'
  20  '-x+1/4, z+3/4, y+3/4'
  21  '-y, -z, x'
  22  '-x+3/4, -z+3/4, -y+1/4'
  23  'y+1/2, -z+1/2, -x'
  24  'x+3/4, -z+1/4, y+3/4'
  25  '-x+1/4, -y+1/4, -z+1/4'
  26  'y, -x, -z'
  27  'x+1/4, y+3/4, -z+3/4'
  28  '-y+1/2, x, -z+1/2'
  29  '-x+1/4, y+1/4, z+1/4'
  30  'y, x+1/2, z+1/2'
  31  'x+1/4, -y+3/4, z+3/4'
  32  '-y+1/2, -x+1/2, z'
  33  '-z+1/4, -x+1/4, -y+1/4'
  34  '-z, y, -x'
  35  '-z+3/4, x+1/4, y+3/4'
  36  '-z+1/2, -y+1/2, x'
  37  'z+1/4, -x+1/4, y+1/4'
  38  'z+1/2, y, x+1/2'
  39  'z+3/4, x+1/4, -y+3/4'
  40  'z, -y+1/2, -x+1/2'
  41  '-y+1/4, -z+1/4, -x+1/4'
  42  '-x, -z, y'
  43  'y+3/4, -z+3/4, x+1/4'
  44  'x, -z+1/2, -y+1/2'
  45  'y+1/4, z+1/4, -x+1/4'
  46  'x+1/2, z+1/2, y'
  47  '-y+3/4, z+3/4, x+1/4'
  48  '-x+1/2, z, -y+1/2'
  49  'x+1/2, y+1/2, z'
  50  '-y+3/4, x+3/4, z+1/4'
  51  '-x+1/2, -y, z+1/2'
  52  'y+1/4, -x+3/4, z+3/4'
  53  'x+1/2, -y+1/2, -z'
  54  '-y+3/4, -x+1/4, -z+3/4'
  55  '-x+1/2, y, -z+1/2'
  56  'y+1/4, x+1/4, -z+1/4'
  57  'z+1/2, x+1/2, y'
  58  'z+3/4, -y+3/4, x+1/4'
  59  'z, -x+1/2, -y+1/2'
  60  'z+1/4, y+1/4, -x+1/4'
  61  '-z+1/2, x+1/2, -y'
  62  '-z+1/4, -y+3/4, -x+3/4'
  63  '-z, -x+1/2, y+1/2'
  64  '-z+3/4, y+1/4, x+3/4'
  65  'y+1/2, z+1/2, x'
  66  'x+3/4, z+3/4, -y+1/4'
  67  '-y, z, -x'
  68  '-x+3/4, z+1/4, y+3/4'
  69  '-y+1/2, -z+1/2, x'
  70  '-x+1/4, -z+1/4, -y+1/4'
  71  'y, -z, -x'
  72  'x+1/4, -z+3/4, y+3/4'
  73  '-x+3/4, -y+3/4, -z+1/4'
  74  'y+1/2, -x+1/2, -z'
  75  'x+3/4, y+1/4, -z+3/4'
  76  '-y, x+1/2, -z+1/2'
  77  '-x+3/4, y+3/4, z+1/4'
  78  'y+1/2, x, z+1/2'
  79  'x+3/4, -y+1/4, z+3/4'
  80  '-y, -x, z'
  81  '-z+3/4, -x+3/4, -y+1/4'
  82  '-z+1/2, y+1/2, -x'
  83  '-z+1/4, x+3/4, y+3/4'
  84  '-z, -y, x'
  85  'z+3/4, -x+3/4, y+1/4'
  86  'z, y+1/2, x+1/2'
  87  'z+1/4, x+3/4, -y+3/4'
  88  'z+1/2, -y, -x+1/2'
  89  '-y+3/4, -z+3/4, -x+1/4'
  90  '-x+1/2, -z+1/2, y'
  91  'y+1/4, -z+1/4, x+1/4'
  92  'x+1/2, -z, -y+1/2'
  93  'y+3/4, z+3/4, -x+1/4'
  94  'x, z, y'
  95  '-y+1/4, z+1/4, x+1/4'
  96  '-x, z+1/2, -y+1/2'
  97  'x+1/2, y, z+1/2'
  98  '-y+3/4, x+1/4, z+3/4'
  99  '-x+1/2, -y+1/2, z'
  100  'y+1/4, -x+1/4, z+1/4'
  101  'x+1/2, -y, -z+1/2'
  102  '-y+3/4, -x+3/4, -z+1/4'
  103  '-x+1/2, y+1/2, -z'
  104  'y+1/4, x+3/4, -z+3/4'
  105  'z+1/2, x, y+1/2'
  106  'z+3/4, -y+1/4, x+3/4'
  107  'z, -x, -y'
  108  'z+1/4, y+3/4, -x+3/4'
  109  '-z+1/2, x, -y+1/2'
  110  '-z+1/4, -y+1/4, -x+1/4'
  111  '-z, -x, y'
  112  '-z+3/4, y+3/4, x+1/4'
  113  'y+1/2, z, x+1/2'
  114  'x+3/4, z+1/4, -y+3/4'
  115  '-y, z+1/2, -x+1/2'
  116  '-x+3/4, z+3/4, y+1/4'
  117  '-y+1/2, -z, x+1/2'
  118  '-x+1/4, -z+3/4, -y+3/4'
  119  'y, -z+1/2, -x+1/2'
  120  'x+1/4, -z+1/4, y+1/4'
  121  '-x+3/4, -y+1/4, -z+3/4'
  122  'y+1/2, -x, -z+1/2'
  123  'x+3/4, y+3/4, -z+1/4'
  124  '-y, x, -z'
  125  '-x+3/4, y+1/4, z+3/4'
  126  'y+1/2, x+1/2, z'
  127  'x+3/4, -y+3/4, z+1/4'
  128  '-y, -x+1/2, z+1/2'
  129  '-z+3/4, -x+1/4, -y+3/4'
  130  '-z+1/2, y, -x+1/2'
  131  '-z+1/4, x+1/4, y+1/4'
  132  '-z, -y+1/2, x+1/2'
  133  'z+3/4, -x+1/4, y+3/4'
  134  'z, y, x'
  135  'z+1/4, x+1/4, -y+1/4'
  136  'z+1/2, -y+1/2, -x'
  137  '-y+3/4, -z+1/4, -x+3/4'
  138  '-x+1/2, -z, y+1/2'
  139  'y+1/4, -z+3/4, x+3/4'
  140  'x+1/2, -z+1/2, -y'
  141  'y+3/4, z+1/4, -x+3/4'
  142  'x, z+1/2, y+1/2'
  143  '-y+1/4, z+3/4, x+3/4'
  144  '-x, z, -y'
  145  'x, y+1/2, z+1/2'
  146  '-y+1/4, x+3/4, z+3/4'
  147  '-x, -y, z'
  148  'y+3/4, -x+3/4, z+1/4'
  149  'x, -y+1/2, -z+1/2'
  150  '-y+1/4, -x+1/4, -z+1/4'
  151  '-x, y, -z'
  152  'y+3/4, x+1/4, -z+3/4'
  153  'z, x+1/2, y+1/2'
  154  'z+1/4, -y+3/4, x+3/4'
  155  'z+1/2, -x+1/2, -y'
  156  'z+3/4, y+1/4, -x+3/4'
  157  '-z, x+1/2, -y+1/2'
  158  '-z+3/4, -y+3/4, -x+1/4'
  159  '-z+1/2, -x+1/2, y'
  160  '-z+1/4, y+1/4, x+1/4'
  161  'y, z+1/2, x+1/2'
  162  'x+1/4, z+3/4, -y+3/4'
  163  '-y+1/2, z, -x+1/2'
  164  '-x+1/4, z+1/4, y+1/4'
  165  '-y, -z+1/2, x+1/2'
  166  '-x+3/4, -z+1/4, -y+3/4'
  167  'y+1/2, -z, -x+1/2'
  168  'x+3/4, -z+3/4, y+1/4'
  169  '-x+1/4, -y+3/4, -z+3/4'
  170  'y, -x+1/2, -z+1/2'
  171  'x+1/4, y+1/4, -z+1/4'
  172  '-y+1/2, x+1/2, -z'
  173  '-x+1/4, y+3/4, z+3/4'
  174  'y, x, z'
  175  'x+1/4, -y+1/4, z+1/4'
  176  '-y+1/2, -x, z+1/2'
  177  '-z+1/4, -x+3/4, -y+3/4'
  178  '-z, y+1/2, -x+1/2'
  179  '-z+3/4, x+3/4, y+1/4'
  180  '-z+1/2, -y, x+1/2'
  181  'z+1/4, -x+3/4, y+3/4'
  182  'z+1/2, y+1/2, x'
  183  'z+3/4, x+3/4, -y+1/4'
  184  'z, -y, -x'
  185  '-y+1/4, -z+3/4, -x+3/4'
  186  '-x, -z+1/2, y+1/2'
  187  'y+3/4, -z+1/4, x+3/4'
  188  'x, -z, -y'
  189  'y+1/4, z+3/4, -x+3/4'
  190  'x+1/2, z, y+1/2'
  191  '-y+3/4, z+1/4, x+3/4'
  192  '-x+1/2, z+1/2, -y'
loop_
 _atom_site_type_symbol
 _atom_site_label
 _atom_site_symmetry_multiplicity
 _atom_site_fract_x
 _atom_site_fract_y
 _atom_site_fract_z
 _atom_site_occupancy
  Cu  Cu0  32  0.06312792  0.06312792  0.43687208  1
  Au  Au1  32  0.06937355  0.43062645  0.43062645  1
# generated using pymatgen
data_ID_96
_symmetry_space_group_name_H-M   Ima2
_cell_length_a   7.49904374
_cell_length_b   12.33289366
_cell_length_c   6.52281837
_cell_angle_alpha   90.00000000
_cell_angle_beta   90.00000000
_cell_angle_gamma   90.00000000
_symmetry_Int_Tables_number   46
_chemical_formula_structural   CuAu
_cell_volume   603.26226369
_cell_formula_units_Z   16
loop_
 _symmetry_equiv_pos_site_id
 _symmetry_equiv_pos_as_xyz
  1  'x, y, z'
  2  '-x, -y, z'
  3  '-x+1/2, y, z'
  4  'x+1/2, -y, z'
  5  'x+1/2, y+1/2, z+1/2'
  6  '-x+1/2, -y+1/2, z+1/2'
  7  '-x, y+1/2, z+1/2'
  8  'x, -y+1/2, z+1/2'
loop_
 _atom_site_type_symbol
 _atom_site_label
 _atom_site_symmetry_multiplicity
 _atom_site_fract_x
 _atom_site_fract_y
 _atom_site_fract_z
 _atom_site_occupancy
  Cu  Cu0  8  0.08554210  0.59793743  0.98888481  1
  Cu  Cu1  4  0.00000000  0.00000000  0.79957790  1
  Cu  Cu2  4  0.25000000  0.09108617  0.52377672  1
  Au  Au3  8  0.07018680  0.20923089  0.80050678  1
  Au  Au4  8  0.07581071  0.09517195  0.14869112  1
# generated using pymatgen
data_ID_97
_symmetry_space_group_name_H-M   Pm-3m
_cell_length_a   3.02653519
_cell_length_b   3.02653519
_cell_length_c   3.02653519
_cell_angle_alpha   90.00000000
_cell_angle_beta   90.00000000
_cell_angle_gamma   90.00000000
_symmetry_Int_Tables_number   221
_chemical_formula_structural   CuAu
_cell_volume   27.72280596
_cell_formula_units_Z   1
loop_
 _symmetry_equiv_pos_site_id
 _symmetry_equiv_pos_as_xyz
  1  'x, y, z'
  2  '-x, -y, -z'
  3  '-y, x, z'
  4  'y, -x, -z'
  5  '-x, -y, z'
  6  'x, y, -z'
  7  'y, -x, z'
  8  '-y, x, -z'
  9  'x, -y, -z'
  10  '-x, y, z'
  11  '-y, -x, -z'
  12  'y, x, z'
  13  '-x, y, -z'
  14  'x, -y, z'
  15  'y, x, -z'
  16  '-y, -x, z'
  17  'z, x, y'
  18  '-z, -x, -y'
  19  'z, -y, x'
  20  '-z, y, -x'
  21  'z, -x, -y'
  22  '-z, x, y'
  23  'z, y, -x'
  24  '-z, -y, x'
  25  '-z, x, -y'
  26  'z, -x, y'
  27  '-z, -y, -x'
  28  'z, y, x'
  29  '-z, -x, y'
  30  'z, x, -y'
  31  '-z, y, x'
  32  'z, -y, -x'
  33  'y, z, x'
  34  '-y, -z, -x'
  35  'x, z, -y'
  36  '-x, -z, y'
  37  '-y, z, -x'
  38  'y, -z, x'
  39  '-x, z, y'
  40  'x, -z, -y'
  41  '-y, -z, x'
  42  'y, z, -x'
  43  '-x, -z, -y'
  44  'x, z, y'
  45  'y, -z, -x'
  46  '-y, z, x'
  47  'x, -z, y'
  48  '-x, z, -y'
loop_
 _atom_site_type_symbol
 _atom_site_label
 _atom_site_symmetry_multiplicity
 _atom_site_fract_x
 _atom_site_fract_y
 _atom_site_fract_z
 _atom_site_occupancy
  Cu  Cu0  1  0.00000000  0.00000000  0.00000000  1
  Au  Au1  1  0.50000000  0.50000000  0.50000000  1
# generated using pymatgen
data_ID_98
_symmetry_space_group_name_H-M   P4/mbm
_cell_length_a   7.57343558
_cell_length_b   7.57343558
_cell_length_c   5.02994467
_cell_angle_alpha   90.00000000
_cell_angle_beta   90.00000000
_cell_angle_gamma   90.00000000
_symmetry_Int_Tables_number   127
_chemical_formula_structural   CuAu
_cell_volume   288.50216715
_cell_formula_units_Z   8
loop_
 _symmetry_equiv_pos_site_id
 _symmetry_equiv_pos_as_xyz
  1  'x, y, z'
  2  '-x, -y, -z'
  3  '-y, x, z'
  4  'y, -x, -z'
  5  '-x, -y, z'
  6  'x, y, -z'
  7  'y, -x, z'
  8  '-y, x, -z'
  9  'x+1/2, -y+1/2, -z'
  10  '-x+1/2, y+1/2, z'
  11  '-y+1/2, -x+1/2, -z'
  12  'y+1/2, x+1/2, z'
  13  '-x+1/2, y+1/2, -z'
  14  'x+1/2, -y+1/2, z'
  15  'y+1/2, x+1/2, -z'
  16  '-y+1/2, -x+1/2, z'
loop_
 _atom_site_type_symbol
 _atom_site_label
 _atom_site_symmetry_multiplicity
 _atom_site_fract_x
 _atom_site_fract_y
 _atom_site_fract_z
 _atom_site_occupancy
  Cu  Cu0  8  0.07294486  0.79202271  0.00000000  1
  Au  Au1  4  0.00000000  0.50000000  0.25459860  1
  Au  Au2  4  0.23687079  0.73687079  0.50000000  1
# generated using pymatgen
data_ID_99
_symmetry_space_group_name_H-M   P-62m
_cell_length_a   7.20671065
_cell_length_b   7.20671065
_cell_length_c   5.31408507
_cell_angle_alpha   90.00000000
_cell_angle_beta   90.00000000
_cell_angle_gamma   120.00000000
_symmetry_Int_Tables_number   189
_chemical_formula_structural   CuAu
_cell_volume   239.01948396
_cell_formula_units_Z   8
loop_
 _symmetry_equiv_pos_site_id
 _symmetry_equiv_pos_as_xyz
  1  'x, y, z'
  2  '-x+y, -x, -z'
  3  '-y, x-y, z'
  4  'x, y, -z'
  5  '-x+y, -x, z'
  6  '-y, x-y, -z'
  7  'y, x, z'
  8  '-x, -x+y, -z'
  9  'x-y, -y, z'
  10  'y, x, -z'
  11  '-x, -x+y, z'
  12  'x-y, -y, -z'
loop_
 _atom_site_type_symbol
 _atom_site_label
 _atom_site_symmetry_multiplicity
 _atom_site_fract_x
 _atom_site_fract_y
 _atom_site_fract_z
 _atom_site_occupancy
  Cu  Cu0  6  0.00000000  0.40958398  0.24090357  1
  Cu  Cu1  2  0.33333333  0.66666667  0.00000000  1
  Au  Au2  6  0.00000000  0.76692554  0.24948342  1
  Au  Au3  2  0.33333333  0.66666667  0.50000000  1
