# generated using pymatgen
data_ID_0
_symmetry_space_group_name_H-M   Cmme
_cell_length_a   7.17408353
_cell_length_b   14.34925545
_cell_length_c   2.53885926
_cell_angle_alpha   90.00000000
_cell_angle_beta   90.00000000
_cell_angle_gamma   90.00000000
_symmetry_Int_Tables_number   67
_chemical_formula_structural   Si
_cell_volume   261.35717230
_cell_formula_units_Z   16
loop_
 _symmetry_equiv_pos_site_id
 _symmetry_equiv_pos_as_xyz
  1  'x, y, z'
  2  '-x, -y, -z'
  3  '-x+1/2, -y, z'
  4  'x+1/2, y, -z'
  5  'x, -y, -z'
  6  '-x, y, z'
  7  '-x+1/2, y, -z'
  8  'x+1/2, -y, z'
  9  'x+1/2, y+1/2, z'
  10  '-x+1/2, -y+1/2, -z'
  11  '-x, -y+1/2, z'
  12  'x, y+1/2, -z'
  13  'x+1/2, -y+1/2, -z'
  14  '-x+1/2, y+1/2, z'
  15  '-x, y+1/2, -z'
  16  'x, -y+1/2, z'
loop_
 _atom_site_type_symbol
 _atom_site_label
 _atom_site_symmetry_multiplicity
 _atom_site_fract_x
 _atom_site_fract_y
 _atom_site_fract_z
 _atom_site_occupancy
  Si  Si0  8  0.00000000  0.12502660  0.99720933  1
  Si  Si1  4  0.25000000  0.00000000  0.00000000  1
  Si  Si2  4  0.25000000  0.25000000  0.00000000  1
# generated using pymatgen
data_ID_1
_symmetry_space_group_name_H-M   P4_2mc
_cell_length_a   6.89014344
_cell_length_b   6.89014344
_cell_length_c   6.33655209
_cell_angle_alpha   90.00000000
_cell_angle_beta   90.00000000
_cell_angle_gamma   90.00000000
_symmetry_Int_Tables_number   105
_chemical_formula_structural   Si
_cell_volume   300.82196007
_cell_formula_units_Z   16
loop_
 _symmetry_equiv_pos_site_id
 _symmetry_equiv_pos_as_xyz
  1  'x, y, z'
  2  '-y, x, z+1/2'
  3  '-x, -y, z'
  4  'y, -x, z+1/2'
  5  '-x, y, z'
  6  'y, x, z+1/2'
  7  'x, -y, z'
  8  '-y, -x, z+1/2'
loop_
 _atom_site_type_symbol
 _atom_site_label
 _atom_site_symmetry_multiplicity
 _atom_site_fract_x
 _atom_site_fract_y
 _atom_site_fract_z
 _atom_site_occupancy
  Si  Si0  4  0.00000000  0.26999552  0.07645029  1
  Si  Si1  4  0.25229967  0.50000000  0.94788501  1
  Si  Si2  4  0.28021210  0.50000000  0.57563820  1
  Si  Si3  2  0.00000000  0.00000000  0.32204838  1
  Si  Si4  2  0.00000000  0.50000000  0.37148614  1
# generated using pymatgen
data_ID_2
_symmetry_space_group_name_H-M   P2_13
_cell_length_a   6.32099197
_cell_length_b   6.32099197
_cell_length_c   6.32099197
_cell_angle_alpha   90.00000000
_cell_angle_beta   90.00000000
_cell_angle_gamma   90.00000000
_symmetry_Int_Tables_number   198
_chemical_formula_structural   Si
_cell_volume   252.55485122
_cell_formula_units_Z   16
loop_
 _symmetry_equiv_pos_site_id
 _symmetry_equiv_pos_as_xyz
  1  'x, y, z'
  2  '-x+1/2, -y, z+1/2'
  3  'x+1/2, -y+1/2, -z'
  4  '-x, y+1/2, -z+1/2'
  5  'z, x, y'
  6  'z+1/2, -x+1/2, -y'
  7  '-z, x+1/2, -y+1/2'
  8  '-z+1/2, -x, y+1/2'
  9  'y, z, x'
  10  '-y, z+1/2, -x+1/2'
  11  '-y+1/2, -z, x+1/2'
  12  'y+1/2, -z+1/2, -x'
loop_
 _atom_site_type_symbol
 _atom_site_label
 _atom_site_symmetry_multiplicity
 _atom_site_fract_x
 _atom_site_fract_y
 _atom_site_fract_z
 _atom_site_occupancy
  Si  Si0  12  0.01817491  0.83866317  0.68693344  1
  Si  Si1  4  0.08379080  0.08379080  0.08379080  1
# generated using pymatgen
data_ID_3
_symmetry_space_group_name_H-M   Fdd2
_cell_length_a   7.07848001
_cell_length_b   10.00852260
_cell_length_c   14.31585723
_cell_angle_alpha   90.00000000
_cell_angle_beta   90.00000000
_cell_angle_gamma   90.00000000
_symmetry_Int_Tables_number   43
_chemical_formula_structural   Si
_cell_volume   1014.20872494
_cell_formula_units_Z   64
loop_
 _symmetry_equiv_pos_site_id
 _symmetry_equiv_pos_as_xyz
  1  'x, y, z'
  2  '-x, -y, z'
  3  '-x+1/4, y+3/4, z+3/4'
  4  'x+1/4, -y+3/4, z+3/4'
  5  'x+1/2, y, z+1/2'
  6  '-x+1/2, -y, z+1/2'
  7  '-x+3/4, y+3/4, z+1/4'
  8  'x+3/4, -y+3/4, z+1/4'
  9  'x+1/2, y+1/2, z'
  10  '-x+1/2, -y+1/2, z'
  11  '-x+3/4, y+1/4, z+3/4'
  12  'x+3/4, -y+1/4, z+3/4'
  13  'x, y+1/2, z+1/2'
  14  '-x, -y+1/2, z+1/2'
  15  '-x+1/4, y+1/4, z+1/4'
  16  'x+1/4, -y+1/4, z+1/4'
loop_
 _atom_site_type_symbol
 _atom_site_label
 _atom_site_symmetry_multiplicity
 _atom_site_fract_x
 _atom_site_fract_y
 _atom_site_fract_z
 _atom_site_occupancy
  Si  Si0  16  0.03384582  0.19268327  0.05647503  1
  Si  Si1  16  0.04221265  0.36202613  0.84434938  1
  Si  Si2  16  0.09504731  0.16393040  0.74990576  1
  Si  Si3  8  0.00000000  0.00000000  0.17869402  1
  Si  Si4  8  0.00000000  0.00000000  0.94157973  1
# generated using pymatgen
data_ID_4
_symmetry_space_group_name_H-M   P4_2/mcm
_cell_length_a   14.42464022
_cell_length_b   14.42464022
_cell_length_c   4.76583706
_cell_angle_alpha   90.00000000
_cell_angle_beta   90.00000000
_cell_angle_gamma   90.00000000
_symmetry_Int_Tables_number   132
_chemical_formula_structural   Si
_cell_volume   991.62888710
_cell_formula_units_Z   16
loop_
 _symmetry_equiv_pos_site_id
 _symmetry_equiv_pos_as_xyz
  1  'x, y, z'
  2  '-x, -y, -z'
  3  '-y, x, z+1/2'
  4  'y, -x, -z+1/2'
  5  '-x, -y, z'
  6  'x, y, -z'
  7  'y, -x, z+1/2'
  8  '-y, x, -z+1/2'
  9  'x, -y, -z+1/2'
  10  '-x, y, z+1/2'
  11  '-y, -x, -z'
  12  'y, x, z'
  13  '-x, y, -z+1/2'
  14  'x, -y, z+1/2'
  15  'y, x, -z'
  16  '-y, -x, z'
loop_
 _atom_site_type_symbol
 _atom_site_label
 _atom_site_symmetry_multiplicity
 _atom_site_fract_x
 _atom_site_fract_y
 _atom_site_fract_z
 _atom_site_occupancy
  Si  Si0  8  0.00000000  0.16512588  0.25000000  1
  Si  Si1  4  0.15437759  0.15437759  0.00000000  1
  Si  Si2  2  0.00000000  0.00000000  0.00000000  1
  Si  Si3  2  0.50000000  0.50000000  0.00000000  1
# generated using pymatgen
data_ID_5
_symmetry_space_group_name_H-M   I-4m2
_cell_length_a   6.28921447
_cell_length_b   6.28921447
_cell_length_c   20.76690055
_cell_angle_alpha   90.00000000
_cell_angle_beta   90.00000000
_cell_angle_gamma   90.00000000
_symmetry_Int_Tables_number   119
_chemical_formula_structural   Si
_cell_volume   821.41852481
_cell_formula_units_Z   32
loop_
 _symmetry_equiv_pos_site_id
 _symmetry_equiv_pos_as_xyz
  1  'x, y, z'
  2  'y, -x, -z'
  3  '-x, -y, z'
  4  '-y, x, -z'
  5  '-x, y, z'
  6  '-y, -x, -z'
  7  'x, -y, z'
  8  'y, x, -z'
  9  'x+1/2, y+1/2, z+1/2'
  10  'y+1/2, -x+1/2, -z+1/2'
  11  '-x+1/2, -y+1/2, z+1/2'
  12  '-y+1/2, x+1/2, -z+1/2'
  13  '-x+1/2, y+1/2, z+1/2'
  14  '-y+1/2, -x+1/2, -z+1/2'
  15  'x+1/2, -y+1/2, z+1/2'
  16  'y+1/2, x+1/2, -z+1/2'
loop_
 _atom_site_type_symbol
 _atom_site_label
 _atom_site_symmetry_multiplicity
 _atom_site_fract_x
 _atom_site_fract_y
 _atom_site_fract_z
 _atom_site_occupancy
  Si  Si0  16  0.18654590  0.29983105  0.60710460  1
  Si  Si1  8  0.00000000  0.31796714  0.33850228  1
  Si  Si2  8  0.18786736  0.18786736  0.00000000  1
# generated using pymatgen
data_ID_6
_symmetry_space_group_name_H-M   I4/mmm
_cell_length_a   6.86305586
_cell_length_b   6.86305586
_cell_length_c   2.59201662
_cell_angle_alpha   90.00000000
_cell_angle_beta   90.00000000
_cell_angle_gamma   90.00000000
_symmetry_Int_Tables_number   139
_chemical_formula_structural   Si
_cell_volume   122.08796362
_cell_formula_units_Z   8
loop_
 _symmetry_equiv_pos_site_id
 _symmetry_equiv_pos_as_xyz
  1  'x, y, z'
  2  '-x, -y, -z'
  3  '-y, x, z'
  4  'y, -x, -z'
  5  '-x, -y, z'
  6  'x, y, -z'
  7  'y, -x, z'
  8  '-y, x, -z'
  9  'x, -y, -z'
  10  '-x, y, z'
  11  '-y, -x, -z'
  12  'y, x, z'
  13  '-x, y, -z'
  14  'x, -y, z'
  15  'y, x, -z'
  16  '-y, -x, z'
  17  'x+1/2, y+1/2, z+1/2'
  18  '-x+1/2, -y+1/2, -z+1/2'
  19  '-y+1/2, x+1/2, z+1/2'
  20  'y+1/2, -x+1/2, -z+1/2'
  21  '-x+1/2, -y+1/2, z+1/2'
  22  'x+1/2, y+1/2, -z+1/2'
  23  'y+1/2, -x+1/2, z+1/2'
  24  '-y+1/2, x+1/2, -z+1/2'
  25  'x+1/2, -y+1/2, -z+1/2'
  26  '-x+1/2, y+1/2, z+1/2'
  27  '-y+1/2, -x+1/2, -z+1/2'
  28  'y+1/2, x+1/2, z+1/2'
  29  '-x+1/2, y+1/2, -z+1/2'
  30  'x+1/2, -y+1/2, z+1/2'
  31  'y+1/2, x+1/2, -z+1/2'
  32  '-y+1/2, -x+1/2, z+1/2'
loop_
 _atom_site_type_symbol
 _atom_site_label
 _atom_site_symmetry_multiplicity
 _atom_site_fract_x
 _atom_site_fract_y
 _atom_site_fract_z
 _atom_site_occupancy
  Si  Si0  8  0.00000000  0.25697124  0.50000000  1
# generated using pymatgen
data_ID_7
_symmetry_space_group_name_H-M   C2
_cell_length_a   5.18780052
_cell_length_b   16.85411446
_cell_length_c   7.77466757
_cell_angle_alpha   90.00000000
_cell_angle_beta   99.29595783
_cell_angle_gamma   90.00000000
_symmetry_Int_Tables_number   5
_chemical_formula_structural   Si
_cell_volume   670.85662569
_cell_formula_units_Z   32
loop_
 _symmetry_equiv_pos_site_id
 _symmetry_equiv_pos_as_xyz
  1  'x, y, z'
  2  '-x, y, -z'
  3  'x+1/2, y+1/2, z'
  4  '-x+1/2, y+1/2, -z'
loop_
 _atom_site_type_symbol
 _atom_site_label
 _atom_site_symmetry_multiplicity
 _atom_site_fract_x
 _atom_site_fract_y
 _atom_site_fract_z
 _atom_site_occupancy
  Si  Si0  4  0.06110472  0.76152261  0.34056528  1
  Si  Si1  4  0.06732232  0.44366187  0.86043023  1
  Si  Si2  4  0.16280247  0.53705598  0.63587095  1
  Si  Si3  4  0.20335642  0.82031728  0.09455798  1
  Si  Si4  4  0.20886138  0.88376198  0.68101381  1
  Si  Si5  4  0.21773274  0.16673766  0.26642356  1
  Si  Si6  2  0.00000000  0.20504709  0.50000000  1
  Si  Si7  2  0.00000000  0.22552715  0.00000000  1
  Si  Si8  2  0.00000000  0.34244543  0.50000000  1
  Si  Si9  2  0.00000000  0.98183323  0.50000000  1
# generated using pymatgen
data_ID_8
_symmetry_space_group_name_H-M   Pmma
_cell_length_a   5.89709248
_cell_length_b   3.74193032
_cell_length_c   6.58754712
_cell_angle_alpha   90.00000000
_cell_angle_beta   90.00000000
_cell_angle_gamma   90.00000000
_symmetry_Int_Tables_number   51
_chemical_formula_structural   Si
_cell_volume   145.36416908
_cell_formula_units_Z   8
loop_
 _symmetry_equiv_pos_site_id
 _symmetry_equiv_pos_as_xyz
  1  'x, y, z'
  2  '-x, -y, -z'
  3  '-x+1/2, -y, z'
  4  'x+1/2, y, -z'
  5  'x+1/2, -y, -z'
  6  '-x+1/2, y, z'
  7  '-x, y, -z'
  8  'x, -y, z'
loop_
 _atom_site_type_symbol
 _atom_site_label
 _atom_site_symmetry_multiplicity
 _atom_site_fract_x
 _atom_site_fract_y
 _atom_site_fract_z
 _atom_site_occupancy
  Si  Si0  2  0.00000000  0.00000000  0.00000000  1
  Si  Si1  2  0.25000000  0.00000000  0.29439790  1
  Si  Si2  2  0.25000000  0.50000000  0.50156586  1
  Si  Si3  2  0.25000000  0.50000000  0.86001616  1
# generated using pymatgen
data_ID_9
_symmetry_space_group_name_H-M   Imma
_cell_length_a   4.75316384
_cell_length_b   8.29569620
_cell_length_c   6.38446495
_cell_angle_alpha   90.00000000
_cell_angle_beta   90.00000000
_cell_angle_gamma   90.00000000
_symmetry_Int_Tables_number   74
_chemical_formula_structural   Si
_cell_volume   251.74458089
_cell_formula_units_Z   16
loop_
 _symmetry_equiv_pos_site_id
 _symmetry_equiv_pos_as_xyz
  1  'x, y, z'
  2  '-x, -y, -z'
  3  '-x, -y+1/2, z'
  4  'x, y+1/2, -z'
  5  'x, -y, -z'
  6  '-x, y, z'
  7  '-x, y+1/2, -z'
  8  'x, -y+1/2, z'
  9  'x+1/2, y+1/2, z+1/2'
  10  '-x+1/2, -y+1/2, -z+1/2'
  11  '-x+1/2, -y, z+1/2'
  12  'x+1/2, y, -z+1/2'
  13  'x+1/2, -y+1/2, -z+1/2'
  14  '-x+1/2, y+1/2, z+1/2'
  15  '-x+1/2, y, -z+1/2'
  16  'x+1/2, -y, z+1/2'
loop_
 _atom_site_type_symbol
 _atom_site_label
 _atom_site_symmetry_multiplicity
 _atom_site_fract_x
 _atom_site_fract_y
 _atom_site_fract_z
 _atom_site_occupancy
  Si  Si0  8  0.00000000  0.10488545  0.36572743  1
  Si  Si1  4  0.00000000  0.00000000  0.00000000  1
  Si  Si2  4  0.00000000  0.25000000  0.78749086  1
# generated using pymatgen
data_ID_10
_symmetry_space_group_name_H-M   Pbca
_cell_length_a   5.13859108
_cell_length_b   7.02828123
_cell_length_c   7.05228183
_cell_angle_alpha   90.00000000
_cell_angle_beta   90.00000000
_cell_angle_gamma   90.00000000
_symmetry_Int_Tables_number   61
_chemical_formula_structural   Si
_cell_volume   254.69642515
_cell_formula_units_Z   16
loop_
 _symmetry_equiv_pos_site_id
 _symmetry_equiv_pos_as_xyz
  1  'x, y, z'
  2  '-x, -y, -z'
  3  '-x+1/2, -y, z+1/2'
  4  'x+1/2, y, -z+1/2'
  5  'x+1/2, -y+1/2, -z'
  6  '-x+1/2, y+1/2, z'
  7  '-x, y+1/2, -z+1/2'
  8  'x, -y+1/2, z+1/2'
loop_
 _atom_site_type_symbol
 _atom_site_label
 _atom_site_symmetry_multiplicity
 _atom_site_fract_x
 _atom_site_fract_y
 _atom_site_fract_z
 _atom_site_occupancy
  Si  Si0  8  0.16778204  0.50030580  0.76131970  1
  Si  Si1  8  0.24808111  0.24942966  0.51289900  1
# generated using pymatgen
data_ID_11
_symmetry_space_group_name_H-M   I4mm
_cell_length_a   5.59181738
_cell_length_b   5.59181738
_cell_length_c   32.59373176
_cell_angle_alpha   90.00000000
_cell_angle_beta   90.00000000
_cell_angle_gamma   90.00000000
_symmetry_Int_Tables_number   107
_chemical_formula_structural   Si
_cell_volume   1019.15454563
_cell_formula_units_Z   32
loop_
 _symmetry_equiv_pos_site_id
 _symmetry_equiv_pos_as_xyz
  1  'x, y, z'
  2  '-y, x, z'
  3  '-x, -y, z'
  4  'y, -x, z'
  5  '-x, y, z'
  6  'y, x, z'
  7  'x, -y, z'
  8  '-y, -x, z'
  9  'x+1/2, y+1/2, z+1/2'
  10  '-y+1/2, x+1/2, z+1/2'
  11  '-x+1/2, -y+1/2, z+1/2'
  12  'y+1/2, -x+1/2, z+1/2'
  13  '-x+1/2, y+1/2, z+1/2'
  14  'y+1/2, x+1/2, z+1/2'
  15  'x+1/2, -y+1/2, z+1/2'
  16  '-y+1/2, -x+1/2, z+1/2'
loop_
 _atom_site_type_symbol
 _atom_site_label
 _atom_site_symmetry_multiplicity
 _atom_site_fract_x
 _atom_site_fract_y
 _atom_site_fract_z
 _atom_site_occupancy
  Si  Si0  8  0.00000000  0.29345087  0.55966301  1
  Si  Si1  8  0.20897003  0.20897003  0.32065726  1
  Si  Si2  8  0.23016012  0.23016012  0.12349374  1
  Si  Si3  4  0.00000000  0.50000000  0.17015970  1
  Si  Si4  2  0.00000000  0.00000000  0.37815960  1
  Si  Si5  2  0.00000000  0.00000000  0.84078728  1
# generated using pymatgen
data_ID_12
_symmetry_space_group_name_H-M   P-6m2
_cell_length_a   11.56026821
_cell_length_b   11.56026821
_cell_length_c   2.52322069
_cell_angle_alpha   90.00000000
_cell_angle_beta   90.00000000
_cell_angle_gamma   120.00000000
_symmetry_Int_Tables_number   187
_chemical_formula_structural   Si
_cell_volume   292.02611366
_cell_formula_units_Z   16
loop_
 _symmetry_equiv_pos_site_id
 _symmetry_equiv_pos_as_xyz
  1  'x, y, z'
  2  '-x+y, -x, -z'
  3  '-y, x-y, z'
  4  'x, y, -z'
  5  '-x+y, -x, z'
  6  '-y, x-y, -z'
  7  '-y, -x, -z'
  8  'x, x-y, z'
  9  '-x+y, y, -z'
  10  '-y, -x, z'
  11  'x, x-y, -z'
  12  '-x+y, y, z'
loop_
 _atom_site_type_symbol
 _atom_site_label
 _atom_site_symmetry_multiplicity
 _atom_site_fract_x
 _atom_site_fract_y
 _atom_site_fract_z
 _atom_site_occupancy
  Si  Si0  6  0.12626425  0.45977388  0.50000000  1
  Si  Si1  6  0.44638525  0.11591755  0.50000000  1
  Si  Si2  3  0.14386805  0.07193403  0.50000000  1
  Si  Si3  1  0.66666667  0.33333333  0.00000000  1
# generated using pymatgen
data_ID_13
_symmetry_space_group_name_H-M   Fm-3m
_cell_length_a   3.86232948
_cell_length_b   3.86232948
_cell_length_c   3.86232948
_cell_angle_alpha   90.00000000
_cell_angle_beta   90.00000000
_cell_angle_gamma   90.00000000
_symmetry_Int_Tables_number   225
_chemical_formula_structural   Si
_cell_volume   57.61664360
_cell_formula_units_Z   4
loop_
 _symmetry_equiv_pos_site_id
 _symmetry_equiv_pos_as_xyz
  1  'x, y, z'
  2  '-x, -y, -z'
  3  '-y, x, z'
  4  'y, -x, -z'
  5  '-x, -y, z'
  6  'x, y, -z'
  7  'y, -x, z'
  8  '-y, x, -z'
  9  'x, -y, -z'
  10  '-x, y, z'
  11  '-y, -x, -z'
  12  'y, x, z'
  13  '-x, y, -z'
  14  'x, -y, z'
  15  'y, x, -z'
  16  '-y, -x, z'
  17  'z, x, y'
  18  '-z, -x, -y'
  19  'z, -y, x'
  20  '-z, y, -x'
  21  'z, -x, -y'
  22  '-z, x, y'
  23  'z, y, -x'
  24  '-z, -y, x'
  25  '-z, x, -y'
  26  'z, -x, y'
  27  '-z, -y, -x'
  28  'z, y, x'
  29  '-z, -x, y'
  30  'z, x, -y'
  31  '-z, y, x'
  32  'z, -y, -x'
  33  'y, z, x'
  34  '-y, -z, -x'
  35  'x, z, -y'
  36  '-x, -z, y'
  37  '-y, z, -x'
  38  'y, -z, x'
  39  '-x, z, y'
  40  'x, -z, -y'
  41  '-y, -z, x'
  42  'y, z, -x'
  43  '-x, -z, -y'
  44  'x, z, y'
  45  'y, -z, -x'
  46  '-y, z, x'
  47  'x, -z, y'
  48  '-x, z, -y'
  49  'x+1/2, y+1/2, z'
  50  '-x+1/2, -y+1/2, -z'
  51  '-y+1/2, x+1/2, z'
  52  'y+1/2, -x+1/2, -z'
  53  '-x+1/2, -y+1/2, z'
  54  'x+1/2, y+1/2, -z'
  55  'y+1/2, -x+1/2, z'
  56  '-y+1/2, x+1/2, -z'
  57  'x+1/2, -y+1/2, -z'
  58  '-x+1/2, y+1/2, z'
  59  '-y+1/2, -x+1/2, -z'
  60  'y+1/2, x+1/2, z'
  61  '-x+1/2, y+1/2, -z'
  62  'x+1/2, -y+1/2, z'
  63  'y+1/2, x+1/2, -z'
  64  '-y+1/2, -x+1/2, z'
  65  'z+1/2, x+1/2, y'
  66  '-z+1/2, -x+1/2, -y'
  67  'z+1/2, -y+1/2, x'
  68  '-z+1/2, y+1/2, -x'
  69  'z+1/2, -x+1/2, -y'
  70  '-z+1/2, x+1/2, y'
  71  'z+1/2, y+1/2, -x'
  72  '-z+1/2, -y+1/2, x'
  73  '-z+1/2, x+1/2, -y'
  74  'z+1/2, -x+1/2, y'
  75  '-z+1/2, -y+1/2, -x'
  76  'z+1/2, y+1/2, x'
  77  '-z+1/2, -x+1/2, y'
  78  'z+1/2, x+1/2, -y'
  79  '-z+1/2, y+1/2, x'
  80  'z+1/2, -y+1/2, -x'
  81  'y+1/2, z+1/2, x'
  82  '-y+1/2, -z+1/2, -x'
  83  'x+1/2, z+1/2, -y'
  84  '-x+1/2, -z+1/2, y'
  85  '-y+1/2, z+1/2, -x'
  86  'y+1/2, -z+1/2, x'
  87  '-x+1/2, z+1/2, y'
  88  'x+1/2, -z+1/2, -y'
  89  '-y+1/2, -z+1/2, x'
  90  'y+1/2, z+1/2, -x'
  91  '-x+1/2, -z+1/2, -y'
  92  'x+1/2, z+1/2, y'
  93  'y+1/2, -z+1/2, -x'
  94  '-y+1/2, z+1/2, x'
  95  'x+1/2, -z+1/2, y'
  96  '-x+1/2, z+1/2, -y'
  97  'x+1/2, y, z+1/2'
  98  '-x+1/2, -y, -z+1/2'
  99  '-y+1/2, x, z+1/2'
  100  'y+1/2, -x, -z+1/2'
  101  '-x+1/2, -y, z+1/2'
  102  'x+1/2, y, -z+1/2'
  103  'y+1/2, -x, z+1/2'
  104  '-y+1/2, x, -z+1/2'
  105  'x+1/2, -y, -z+1/2'
  106  '-x+1/2, y, z+1/2'
  107  '-y+1/2, -x, -z+1/2'
  108  'y+1/2, x, z+1/2'
  109  '-x+1/2, y, -z+1/2'
  110  'x+1/2, -y, z+1/2'
  111  'y+1/2, x, -z+1/2'
  112  '-y+1/2, -x, z+1/2'
  113  'z+1/2, x, y+1/2'
  114  '-z+1/2, -x, -y+1/2'
  115  'z+1/2, -y, x+1/2'
  116  '-z+1/2, y, -x+1/2'
  117  'z+1/2, -x, -y+1/2'
  118  '-z+1/2, x, y+1/2'
  119  'z+1/2, y, -x+1/2'
  120  '-z+1/2, -y, x+1/2'
  121  '-z+1/2, x, -y+1/2'
  122  'z+1/2, -x, y+1/2'
  123  '-z+1/2, -y, -x+1/2'
  124  'z+1/2, y, x+1/2'
  125  '-z+1/2, -x, y+1/2'
  126  'z+1/2, x, -y+1/2'
  127  '-z+1/2, y, x+1/2'
  128  'z+1/2, -y, -x+1/2'
  129  'y+1/2, z, x+1/2'
  130  '-y+1/2, -z, -x+1/2'
  131  'x+1/2, z, -y+1/2'
  132  '-x+1/2, -z, y+1/2'
  133  '-y+1/2, z, -x+1/2'
  134  'y+1/2, -z, x+1/2'
  135  '-x+1/2, z, y+1/2'
  136  'x+1/2, -z, -y+1/2'
  137  '-y+1/2, -z, x+1/2'
  138  'y+1/2, z, -x+1/2'
  139  '-x+1/2, -z, -y+1/2'
  140  'x+1/2, z, y+1/2'
  141  'y+1/2, -z, -x+1/2'
  142  '-y+1/2, z, x+1/2'
  143  'x+1/2, -z, y+1/2'
  144  '-x+1/2, z, -y+1/2'
  145  'x, y+1/2, z+1/2'
  146  '-x, -y+1/2, -z+1/2'
  147  '-y, x+1/2, z+1/2'
  148  'y, -x+1/2, -z+1/2'
  149  '-x, -y+1/2, z+1/2'
  150  'x, y+1/2, -z+1/2'
  151  'y, -x+1/2, z+1/2'
  152  '-y, x+1/2, -z+1/2'
  153  'x, -y+1/2, -z+1/2'
  154  '-x, y+1/2, z+1/2'
  155  '-y, -x+1/2, -z+1/2'
  156  'y, x+1/2, z+1/2'
  157  '-x, y+1/2, -z+1/2'
  158  'x, -y+1/2, z+1/2'
  159  'y, x+1/2, -z+1/2'
  160  '-y, -x+1/2, z+1/2'
  161  'z, x+1/2, y+1/2'
  162  '-z, -x+1/2, -y+1/2'
  163  'z, -y+1/2, x+1/2'
  164  '-z, y+1/2, -x+1/2'
  165  'z, -x+1/2, -y+1/2'
  166  '-z, x+1/2, y+1/2'
  167  'z, y+1/2, -x+1/2'
  168  '-z, -y+1/2, x+1/2'
  169  '-z, x+1/2, -y+1/2'
  170  'z, -x+1/2, y+1/2'
  171  '-z, -y+1/2, -x+1/2'
  172  'z, y+1/2, x+1/2'
  173  '-z, -x+1/2, y+1/2'
  174  'z, x+1/2, -y+1/2'
  175  '-z, y+1/2, x+1/2'
  176  'z, -y+1/2, -x+1/2'
  177  'y, z+1/2, x+1/2'
  178  '-y, -z+1/2, -x+1/2'
  179  'x, z+1/2, -y+1/2'
  180  '-x, -z+1/2, y+1/2'
  181  '-y, z+1/2, -x+1/2'
  182  'y, -z+1/2, x+1/2'
  183  '-x, z+1/2, y+1/2'
  184  'x, -z+1/2, -y+1/2'
  185  '-y, -z+1/2, x+1/2'
  186  'y, z+1/2, -x+1/2'
  187  '-x, -z+1/2, -y+1/2'
  188  'x, z+1/2, y+1/2'
  189  'y, -z+1/2, -x+1/2'
  190  '-y, z+1/2, x+1/2'
  191  'x, -z+1/2, y+1/2'
  192  '-x, z+1/2, -y+1/2'
loop_
 _atom_site_type_symbol
 _atom_site_label
 _atom_site_symmetry_multiplicity
 _atom_site_fract_x
 _atom_site_fract_y
 _atom_site_fract_z
 _atom_site_occupancy
  Si  Si0  4  0.00000000  0.00000000  0.00000000  1
# generated using pymatgen
data_ID_14
_symmetry_space_group_name_H-M   P4/m
_cell_length_a   6.05503012
_cell_length_b   6.05503012
_cell_length_c   7.23116128
_cell_angle_alpha   90.00000000
_cell_angle_beta   90.00000000
_cell_angle_gamma   90.00000000
_symmetry_Int_Tables_number   83
_chemical_formula_structural   Si
_cell_volume   265.11888392
_cell_formula_units_Z   16
loop_
 _symmetry_equiv_pos_site_id
 _symmetry_equiv_pos_as_xyz
  1  'x, y, z'
  2  '-x, -y, -z'
  3  '-y, x, z'
  4  'y, -x, -z'
  5  '-x, -y, z'
  6  'x, y, -z'
  7  'y, -x, z'
  8  '-y, x, -z'
loop_
 _atom_site_type_symbol
 _atom_site_label
 _atom_site_symmetry_multiplicity
 _atom_site_fract_x
 _atom_site_fract_y
 _atom_site_fract_z
 _atom_site_occupancy
  Si  Si0  8  0.15899337  0.62010520  0.32574906  1
  Si  Si1  4  0.06049804  0.72219747  0.00000000  1
  Si  Si2  2  0.00000000  0.00000000  0.33142925  1
  Si  Si3  2  0.50000000  0.50000000  0.17175980  1
# generated using pymatgen
data_ID_15
_symmetry_space_group_name_H-M   Pm-3m
_cell_length_a   7.88628265
_cell_length_b   7.88628265
_cell_length_c   7.88628265
_cell_angle_alpha   90.00000000
_cell_angle_beta   90.00000000
_cell_angle_gamma   90.00000000
_symmetry_Int_Tables_number   221
_chemical_formula_structural   Si
_cell_volume   490.47515775
_cell_formula_units_Z   16
loop_
 _symmetry_equiv_pos_site_id
 _symmetry_equiv_pos_as_xyz
  1  'x, y, z'
  2  '-x, -y, -z'
  3  '-y, x, z'
  4  'y, -x, -z'
  5  '-x, -y, z'
  6  'x, y, -z'
  7  'y, -x, z'
  8  '-y, x, -z'
  9  'x, -y, -z'
  10  '-x, y, z'
  11  '-y, -x, -z'
  12  'y, x, z'
  13  '-x, y, -z'
  14  'x, -y, z'
  15  'y, x, -z'
  16  '-y, -x, z'
  17  'z, x, y'
  18  '-z, -x, -y'
  19  'z, -y, x'
  20  '-z, y, -x'
  21  'z, -x, -y'
  22  '-z, x, y'
  23  'z, y, -x'
  24  '-z, -y, x'
  25  '-z, x, -y'
  26  'z, -x, y'
  27  '-z, -y, -x'
  28  'z, y, x'
  29  '-z, -x, y'
  30  'z, x, -y'
  31  '-z, y, x'
  32  'z, -y, -x'
  33  'y, z, x'
  34  '-y, -z, -x'
  35  'x, z, -y'
  36  '-x, -z, y'
  37  '-y, z, -x'
  38  'y, -z, x'
  39  '-x, z, y'
  40  'x, -z, -y'
  41  '-y, -z, x'
  42  'y, z, -x'
  43  '-x, -z, -y'
  44  'x, z, y'
  45  'y, -z, -x'
  46  '-y, z, x'
  47  'x, -z, y'
  48  '-x, z, -y'
loop_
 _atom_site_type_symbol
 _atom_site_label
 _atom_site_symmetry_multiplicity
 _atom_site_fract_x
 _atom_site_fract_y
 _atom_site_fract_z
 _atom_site_occupancy
  Si  Si0  12  0.00000000  0.20465075  0.50000000  1
  Si  Si1  3  0.00000000  0.50000000  0.50000000  1
  Si  Si2  1  0.00000000  0.00000000  0.00000000  1
# generated using pymatgen
data_ID_16
_symmetry_space_group_name_H-M   P31c
_cell_length_a   6.32194061
_cell_length_b   6.32194061
_cell_length_c   7.19214350
_cell_angle_alpha   90.00000000
_cell_angle_beta   90.00000000
_cell_angle_gamma   120.00000000
_symmetry_Int_Tables_number   159
_chemical_formula_structural   Si
_cell_volume   248.93719925
_cell_formula_units_Z   16
loop_
 _symmetry_equiv_pos_site_id
 _symmetry_equiv_pos_as_xyz
  1  'x, y, z'
  2  '-y, x-y, z'
  3  '-x+y, -x, z'
  4  'y, x, z+1/2'
  5  'x-y, -y, z+1/2'
  6  '-x, -x+y, z+1/2'
loop_
 _atom_site_type_symbol
 _atom_site_label
 _atom_site_symmetry_multiplicity
 _atom_site_fract_x
 _atom_site_fract_y
 _atom_site_fract_z
 _atom_site_occupancy
  Si  Si0  6  0.00046876  0.61919766  0.33924087  1
  Si  Si1  6  0.10739163  0.40095179  0.59566105  1
  Si  Si2  2  0.00000000  0.00000000  0.44440786  1
  Si  Si3  2  0.33333333  0.66666667  0.08698281  1
# generated using pymatgen
data_ID_17
_symmetry_space_group_name_H-M   I4/mmm
_cell_length_a   2.51772889
_cell_length_b   2.51772889
_cell_length_c   9.94370405
_cell_angle_alpha   90.00000000
_cell_angle_beta   90.00000000
_cell_angle_gamma   90.00000000
_symmetry_Int_Tables_number   139
_chemical_formula_structural   Si
_cell_volume   63.03272993
_cell_formula_units_Z   4
loop_
 _symmetry_equiv_pos_site_id
 _symmetry_equiv_pos_as_xyz
  1  'x, y, z'
  2  '-x, -y, -z'
  3  '-y, x, z'
  4  'y, -x, -z'
  5  '-x, -y, z'
  6  'x, y, -z'
  7  'y, -x, z'
  8  '-y, x, -z'
  9  'x, -y, -z'
  10  '-x, y, z'
  11  '-y, -x, -z'
  12  'y, x, z'
  13  '-x, y, -z'
  14  'x, -y, z'
  15  'y, x, -z'
  16  '-y, -x, z'
  17  'x+1/2, y+1/2, z+1/2'
  18  '-x+1/2, -y+1/2, -z+1/2'
  19  '-y+1/2, x+1/2, z+1/2'
  20  'y+1/2, -x+1/2, -z+1/2'
  21  '-x+1/2, -y+1/2, z+1/2'
  22  'x+1/2, y+1/2, -z+1/2'
  23  'y+1/2, -x+1/2, z+1/2'
  24  '-y+1/2, x+1/2, -z+1/2'
  25  'x+1/2, -y+1/2, -z+1/2'
  26  '-x+1/2, y+1/2, z+1/2'
  27  '-y+1/2, -x+1/2, -z+1/2'
  28  'y+1/2, x+1/2, z+1/2'
  29  '-x+1/2, y+1/2, -z+1/2'
  30  'x+1/2, -y+1/2, z+1/2'
  31  'y+1/2, x+1/2, -z+1/2'
  32  '-y+1/2, -x+1/2, z+1/2'
loop_
 _atom_site_type_symbol
 _atom_site_label
 _atom_site_symmetry_multiplicity
 _atom_site_fract_x
 _atom_site_fract_y
 _atom_site_fract_z
 _atom_site_occupancy
  Si  Si0  4  0.00000000  0.00000000  0.37470007  1
# generated using pymatgen
data_ID_18
_symmetry_space_group_name_H-M   Pbam
_cell_length_a   7.64256313
_cell_length_b   11.09050054
_cell_length_c   6.70882278
_cell_angle_alpha   90.00000000
_cell_angle_beta   90.00000000
_cell_angle_gamma   90.00000000
_symmetry_Int_Tables_number   55
_chemical_formula_structural   Si
_cell_volume   568.63881598
_cell_formula_units_Z   16
loop_
 _symmetry_equiv_pos_site_id
 _symmetry_equiv_pos_as_xyz
  1  'x, y, z'
  2  '-x, -y, -z'
  3  '-x, -y, z'
  4  'x, y, -z'
  5  'x+1/2, -y+1/2, -z'
  6  '-x+1/2, y+1/2, z'
  7  '-x+1/2, y+1/2, -z'
  8  'x+1/2, -y+1/2, z'
loop_
 _atom_site_type_symbol
 _atom_site_label
 _atom_site_symmetry_multiplicity
 _atom_site_fract_x
 _atom_site_fract_y
 _atom_site_fract_z
 _atom_site_occupancy
  Si  Si0  8  0.09322393  0.28762662  0.16938106  1
  Si  Si1  8  0.16842409  0.71315838  0.33064630  1
# generated using pymatgen
data_ID_19
_symmetry_space_group_name_H-M   I-42m
_cell_length_a   11.10861909
_cell_length_b   11.10861909
_cell_length_c   5.48940555
_cell_angle_alpha   90.00000000
_cell_angle_beta   90.00000000
_cell_angle_gamma   90.00000000
_symmetry_Int_Tables_number   121
_chemical_formula_structural   Si
_cell_volume   677.40042948
_cell_formula_units_Z   32
loop_
 _symmetry_equiv_pos_site_id
 _symmetry_equiv_pos_as_xyz
  1  'x, y, z'
  2  'y, -x, -z'
  3  '-x, -y, z'
  4  '-y, x, -z'
  5  'x, -y, -z'
  6  'y, x, z'
  7  '-x, y, -z'
  8  '-y, -x, z'
  9  'x+1/2, y+1/2, z+1/2'
  10  'y+1/2, -x+1/2, -z+1/2'
  11  '-x+1/2, -y+1/2, z+1/2'
  12  '-y+1/2, x+1/2, -z+1/2'
  13  'x+1/2, -y+1/2, -z+1/2'
  14  'y+1/2, x+1/2, z+1/2'
  15  '-x+1/2, y+1/2, -z+1/2'
  16  '-y+1/2, -x+1/2, z+1/2'
loop_
 _atom_site_type_symbol
 _atom_site_label
 _atom_site_symmetry_multiplicity
 _atom_site_fract_x
 _atom_site_fract_y
 _atom_site_fract_z
 _atom_site_occupancy
  Si  Si0  8  0.00000000  0.26024274  0.00000000  1
  Si  Si1  8  0.11243748  0.88756252  0.27481405  1
  Si  Si2  8  0.11248590  0.11248590  0.27491852  1
  Si  Si3  8  0.24502442  0.24502442  0.99833933  1
