# generated using pymatgen
data_ID_0
_symmetry_space_group_name_H-M   I4_1md
_cell_length_a   13.47213050
_cell_length_b   13.47213050
_cell_length_c   4.95688488
_cell_angle_alpha   90.00000000
_cell_angle_beta   90.00000000
_cell_angle_gamma   90.00000000
_symmetry_Int_Tables_number   109
_chemical_formula_structural   Si
_cell_volume   899.66618012
_cell_formula_units_Z   32
loop_
 _symmetry_equiv_pos_site_id
 _symmetry_equiv_pos_as_xyz
  1  'x, y, z'
  2  '-y, x+1/2, z+1/4'
  3  '-x+1/2, -y+1/2, z+1/2'
  4  'y+1/2, -x, z+3/4'
  5  '-x, y, z'
  6  'y, x+1/2, z+1/4'
  7  'x+1/2, -y+1/2, z+1/2'
  8  '-y+1/2, -x, z+3/4'
  9  'x+1/2, y+1/2, z+1/2'
  10  '-y+1/2, x, z+3/4'
  11  '-x, -y, z'
  12  'y, -x+1/2, z+1/4'
  13  '-x+1/2, y+1/2, z+1/2'
  14  'y+1/2, x, z+3/4'
  15  'x, -y, z'
  16  '-y, -x+1/2, z+1/4'
loop_
 _atom_site_type_symbol
 _atom_site_label
 _atom_site_symmetry_multiplicity
 _atom_site_fract_x
 _atom_site_fract_y
 _atom_site_fract_z
 _atom_site_occupancy
  Si  Si0  8  0.00000000  0.12299497  0.22311265  1
  Si  Si1  8  0.00000000  0.17069734  0.41458630  1
  Si  Si2  8  0.00000000  0.36573860  0.36571980  1
  Si  Si3  4  0.00000000  0.00000000  0.39417171  1
  Si  Si4  4  0.00000000  0.00000000  0.90820636  1
# generated using pymatgen
data_ID_1
_symmetry_space_group_name_H-M   R3m
_cell_length_a   12.81237734
_cell_length_b   12.81237734
_cell_length_c   9.87562683
_cell_angle_alpha   90.00000000
_cell_angle_beta   90.00000000
_cell_angle_gamma   120.00000000
_symmetry_Int_Tables_number   160
_chemical_formula_structural   Si
_cell_volume   1403.96003096
_cell_formula_units_Z   48
loop_
 _symmetry_equiv_pos_site_id
 _symmetry_equiv_pos_as_xyz
  1  'x, y, z'
  2  '-y, x-y, z'
  3  '-x+y, -x, z'
  4  '-y, -x, z'
  5  '-x+y, y, z'
  6  'x, x-y, z'
  7  'x+2/3, y+1/3, z+1/3'
  8  '-y+2/3, x-y+1/3, z+1/3'
  9  '-x+y+2/3, -x+1/3, z+1/3'
  10  '-y+2/3, -x+1/3, z+1/3'
  11  '-x+y+2/3, y+1/3, z+1/3'
  12  'x+2/3, x-y+1/3, z+1/3'
  13  'x+1/3, y+2/3, z+2/3'
  14  '-y+1/3, x-y+2/3, z+2/3'
  15  '-x+y+1/3, -x+2/3, z+2/3'
  16  '-y+1/3, -x+2/3, z+2/3'
  17  '-x+y+1/3, y+2/3, z+2/3'
  18  'x+1/3, x-y+2/3, z+2/3'
loop_
 _atom_site_type_symbol
 _atom_site_label
 _atom_site_symmetry_multiplicity
 _atom_site_fract_x
 _atom_site_fract_y
 _atom_site_fract_z
 _atom_site_occupancy
  Si  Si0  18  0.02082699  0.43587851  0.63096826  1
  Si  Si1  18  0.11208813  0.34139566  0.84919178  1
  Si  Si2  9  0.04211267  0.08422533  0.93769854  1
  Si  Si3  3  0.00000000  0.00000000  0.15112477  1
# generated using pymatgen
data_ID_2
_symmetry_space_group_name_H-M   Pa-3
_cell_length_a   6.91086031
_cell_length_b   6.91086031
_cell_length_c   6.91086031
_cell_angle_alpha   90.00000000
_cell_angle_beta   90.00000000
_cell_angle_gamma   90.00000000
_symmetry_Int_Tables_number   205
_chemical_formula_structural   Si
_cell_volume   330.06262072
_cell_formula_units_Z   16
loop_
 _symmetry_equiv_pos_site_id
 _symmetry_equiv_pos_as_xyz
  1  'x, y, z'
  2  '-x, -y, -z'
  3  '-x+1/2, -y, z+1/2'
  4  'x+1/2, y, -z+1/2'
  5  'x+1/2, -y+1/2, -z'
  6  '-x+1/2, y+1/2, z'
  7  '-x, y+1/2, -z+1/2'
  8  'x, -y+1/2, z+1/2'
  9  'z, x, y'
  10  '-z, -x, -y'
  11  'z+1/2, -x+1/2, -y'
  12  '-z+1/2, x+1/2, y'
  13  '-z, x+1/2, -y+1/2'
  14  'z, -x+1/2, y+1/2'
  15  '-z+1/2, -x, y+1/2'
  16  'z+1/2, x, -y+1/2'
  17  'y, z, x'
  18  '-y, -z, -x'
  19  '-y, z+1/2, -x+1/2'
  20  'y, -z+1/2, x+1/2'
  21  '-y+1/2, -z, x+1/2'
  22  'y+1/2, z, -x+1/2'
  23  'y+1/2, -z+1/2, -x'
  24  '-y+1/2, z+1/2, x'
loop_
 _atom_site_type_symbol
 _atom_site_label
 _atom_site_symmetry_multiplicity
 _atom_site_fract_x
 _atom_site_fract_y
 _atom_site_fract_z
 _atom_site_occupancy
  Si  Si0  8  0.11446616  0.61446616  0.88553384  1
  Si  Si1  8  0.23826910  0.73826910  0.76173090  1
# generated using pymatgen
data_ID_3
_symmetry_space_group_name_H-M   P4/nnc
_cell_length_a   5.49688568
_cell_length_b   5.49688568
_cell_length_c   14.44199421
_cell_angle_alpha   90.00000000
_cell_angle_beta   90.00000000
_cell_angle_gamma   90.00000000
_symmetry_Int_Tables_number   126
_chemical_formula_structural   Si
_cell_volume   436.37571711
_cell_formula_units_Z   16
loop_
 _symmetry_equiv_pos_site_id
 _symmetry_equiv_pos_as_xyz
  1  'x, y, z'
  2  '-y, x, z'
  3  '-x, -y, z'
  4  'y, -x, z'
  5  'x, -y, -z'
  6  '-y, -x, -z'
  7  '-x, y, -z'
  8  'y, x, -z'
  9  '-x+1/2, -y+1/2, -z+1/2'
  10  'y+1/2, -x+1/2, -z+1/2'
  11  'x+1/2, y+1/2, -z+1/2'
  12  '-y+1/2, x+1/2, -z+1/2'
  13  '-x+1/2, y+1/2, z+1/2'
  14  'y+1/2, x+1/2, z+1/2'
  15  'x+1/2, -y+1/2, z+1/2'
  16  '-y+1/2, -x+1/2, z+1/2'
loop_
 _atom_site_type_symbol
 _atom_site_label
 _atom_site_symmetry_multiplicity
 _atom_site_fract_x
 _atom_site_fract_y
 _atom_site_fract_z
 _atom_site_occupancy
  Si  Si0  16  0.19867883  0.29702713  0.12246097  1
# generated using pymatgen
data_ID_4
_symmetry_space_group_name_H-M   P422
_cell_length_a   6.38679046
_cell_length_b   6.38679046
_cell_length_c   15.80851239
_cell_angle_alpha   90.00000000
_cell_angle_beta   90.00000000
_cell_angle_gamma   90.00000000
_symmetry_Int_Tables_number   89
_chemical_formula_structural   Si
_cell_volume   644.84648944
_cell_formula_units_Z   16
loop_
 _symmetry_equiv_pos_site_id
 _symmetry_equiv_pos_as_xyz
  1  'x, y, z'
  2  '-y, x, z'
  3  '-x, -y, z'
  4  'y, -x, z'
  5  'x, -y, -z'
  6  '-y, -x, -z'
  7  '-x, y, -z'
  8  'y, x, -z'
loop_
 _atom_site_type_symbol
 _atom_site_label
 _atom_site_symmetry_multiplicity
 _atom_site_fract_x
 _atom_site_fract_y
 _atom_site_fract_z
 _atom_site_occupancy
  Si  Si0  8  0.33977183  0.39171218  0.58372010  1
  Si  Si1  4  0.32556658  0.32556658  0.50000000  1
  Si  Si2  2  0.00000000  0.50000000  0.50000000  1
  Si  Si3  1  0.50000000  0.50000000  0.00000000  1
  Si  Si4  1  0.50000000  0.50000000  0.50000000  1
# generated using pymatgen
data_ID_5
_symmetry_space_group_name_H-M   P42_12
_cell_length_a   4.87553554
_cell_length_b   4.87553554
_cell_length_c   7.93451355
_cell_angle_alpha   90.00000000
_cell_angle_beta   90.00000000
_cell_angle_gamma   90.00000000
_symmetry_Int_Tables_number   90
_chemical_formula_structural   Si
_cell_volume   188.61010580
_cell_formula_units_Z   16
loop_
 _symmetry_equiv_pos_site_id
 _symmetry_equiv_pos_as_xyz
  1  'x, y, z'
  2  '-y+1/2, x+1/2, z'
  3  '-x, -y, z'
  4  'y+1/2, -x+1/2, z'
  5  'x+1/2, -y+1/2, -z'
  6  '-y, -x, -z'
  7  '-x+1/2, y+1/2, -z'
  8  'y, x, -z'
loop_
 _atom_site_type_symbol
 _atom_site_label
 _atom_site_symmetry_multiplicity
 _atom_site_fract_x
 _atom_site_fract_y
 _atom_site_fract_z
 _atom_site_occupancy
  Si  Si0  8  0.06385044  0.25467526  0.44312660  1
  Si  Si1  4  0.00000000  0.00000000  0.09079853  1
  Si  Si2  4  0.00000000  0.00000000  0.28545033  1
# generated using pymatgen
data_ID_6
_symmetry_space_group_name_H-M   P6_3/m
_cell_length_a   5.34885774
_cell_length_b   5.34885774
_cell_length_c   6.21928896
_cell_angle_alpha   90.00000000
_cell_angle_beta   90.00000000
_cell_angle_gamma   120.00000000
_symmetry_Int_Tables_number   176
_chemical_formula_structural   Si
_cell_volume   154.09674421
_cell_formula_units_Z   16
loop_
 _symmetry_equiv_pos_site_id
 _symmetry_equiv_pos_as_xyz
  1  'x, y, z'
  2  '-x, -y, -z'
  3  'x-y, x, z+1/2'
  4  '-x+y, -x, -z+1/2'
  5  '-y, x-y, z'
  6  'y, -x+y, -z'
  7  '-x, -y, z+1/2'
  8  'x, y, -z+1/2'
  9  '-x+y, -x, z'
  10  'x-y, x, -z'
  11  'y, -x+y, z+1/2'
  12  '-y, x-y, -z+1/2'
loop_
 _atom_site_type_symbol
 _atom_site_label
 _atom_site_symmetry_multiplicity
 _atom_site_fract_x
 _atom_site_fract_y
 _atom_site_fract_z
 _atom_site_occupancy
  Si  Si0  12  0.22048424  0.51373467  0.03022109  1
  Si  Si1  2  0.00000000  0.00000000  0.25000000  1
  Si  Si2  2  0.33333333  0.66666667  0.25000000  1
# generated using pymatgen
data_ID_7
_symmetry_space_group_name_H-M   P6_3/m
_cell_length_a   7.74102906
_cell_length_b   7.74102906
_cell_length_c   10.73260199
_cell_angle_alpha   90.00000000
_cell_angle_beta   90.00000000
_cell_angle_gamma   120.00000000
_symmetry_Int_Tables_number   176
_chemical_formula_structural   Si
_cell_volume   556.97160096
_cell_formula_units_Z   16
loop_
 _symmetry_equiv_pos_site_id
 _symmetry_equiv_pos_as_xyz
  1  'x, y, z'
  2  '-x, -y, -z'
  3  'x-y, x, z+1/2'
  4  '-x+y, -x, -z+1/2'
  5  '-y, x-y, z'
  6  'y, -x+y, -z'
  7  '-x, -y, z+1/2'
  8  'x, y, -z+1/2'
  9  '-x+y, -x, z'
  10  'x-y, x, -z'
  11  'y, -x+y, z+1/2'
  12  '-y, x-y, -z+1/2'
loop_
 _atom_site_type_symbol
 _atom_site_label
 _atom_site_symmetry_multiplicity
 _atom_site_fract_x
 _atom_site_fract_y
 _atom_site_fract_z
 _atom_site_occupancy
  Si  Si0  6  0.08568864  0.81142186  0.25000000  1
  Si  Si1  4  0.00000000  0.00000000  0.10783083  1
  Si  Si2  4  0.33333333  0.66666667  0.19147172  1
  Si  Si3  2  0.33333333  0.66666667  0.75000000  1
# generated using pymatgen
data_ID_8
_symmetry_space_group_name_H-M   I-43m
_cell_length_a   9.07839228
_cell_length_b   9.07839228
_cell_length_c   9.07839228
_cell_angle_alpha   90.00000000
_cell_angle_beta   90.00000000
_cell_angle_gamma   90.00000000
_symmetry_Int_Tables_number   217
_chemical_formula_structural   Si
_cell_volume   748.21573011
_cell_formula_units_Z   32
loop_
 _symmetry_equiv_pos_site_id
 _symmetry_equiv_pos_as_xyz
  1  'x, y, z'
  2  'y, -x, -z'
  3  '-x, -y, z'
  4  '-y, x, -z'
  5  'x, -y, -z'
  6  'y, x, z'
  7  '-x, y, -z'
  8  '-y, -x, z'
  9  'z, x, y'
  10  '-z, y, -x'
  11  'z, -x, -y'
  12  '-z, -y, x'
  13  '-z, x, -y'
  14  'z, y, x'
  15  '-z, -x, y'
  16  'z, -y, -x'
  17  'y, z, x'
  18  '-x, -z, y'
  19  '-y, z, -x'
  20  'x, -z, -y'
  21  '-y, -z, x'
  22  'x, z, y'
  23  'y, -z, -x'
  24  '-x, z, -y'
  25  'x+1/2, y+1/2, z+1/2'
  26  'y+1/2, -x+1/2, -z+1/2'
  27  '-x+1/2, -y+1/2, z+1/2'
  28  '-y+1/2, x+1/2, -z+1/2'
  29  'x+1/2, -y+1/2, -z+1/2'
  30  'y+1/2, x+1/2, z+1/2'
  31  '-x+1/2, y+1/2, -z+1/2'
  32  '-y+1/2, -x+1/2, z+1/2'
  33  'z+1/2, x+1/2, y+1/2'
  34  '-z+1/2, y+1/2, -x+1/2'
  35  'z+1/2, -x+1/2, -y+1/2'
  36  '-z+1/2, -y+1/2, x+1/2'
  37  '-z+1/2, x+1/2, -y+1/2'
  38  'z+1/2, y+1/2, x+1/2'
  39  '-z+1/2, -x+1/2, y+1/2'
  40  'z+1/2, -y+1/2, -x+1/2'
  41  'y+1/2, z+1/2, x+1/2'
  42  '-x+1/2, -z+1/2, y+1/2'
  43  '-y+1/2, z+1/2, -x+1/2'
  44  'x+1/2, -z+1/2, -y+1/2'
  45  '-y+1/2, -z+1/2, x+1/2'
  46  'x+1/2, z+1/2, y+1/2'
  47  'y+1/2, -z+1/2, -x+1/2'
  48  '-x+1/2, z+1/2, -y+1/2'
loop_
 _atom_site_type_symbol
 _atom_site_label
 _atom_site_symmetry_multiplicity
 _atom_site_fract_x
 _atom_site_fract_y
 _atom_site_fract_z
 _atom_site_occupancy
  Si  Si0  24  0.16816551  0.26863331  0.26863331  1
  Si  Si1  6  0.00000000  0.00000000  0.50000000  1
  Si  Si2  2  0.00000000  0.00000000  0.00000000  1
# generated using pymatgen
data_ID_9
_symmetry_space_group_name_H-M   P6/m
_cell_length_a   8.13806075
_cell_length_b   8.13806075
_cell_length_c   5.43213342
_cell_angle_alpha   90.00000000
_cell_angle_beta   90.00000000
_cell_angle_gamma   120.00000000
_symmetry_Int_Tables_number   175
_chemical_formula_structural   Si
_cell_volume   311.56087527
_cell_formula_units_Z   16
loop_
 _symmetry_equiv_pos_site_id
 _symmetry_equiv_pos_as_xyz
  1  'x, y, z'
  2  '-x, -y, -z'
  3  'x-y, x, z'
  4  '-x+y, -x, -z'
  5  '-y, x-y, z'
  6  'y, -x+y, -z'
  7  '-x, -y, z'
  8  'x, y, -z'
  9  '-x+y, -x, z'
  10  'x-y, x, -z'
  11  'y, -x+y, z'
  12  '-y, x-y, -z'
loop_
 _atom_site_type_symbol
 _atom_site_label
 _atom_site_symmetry_multiplicity
 _atom_site_fract_x
 _atom_site_fract_y
 _atom_site_fract_z
 _atom_site_occupancy
  Si  Si0  6  0.05618047  0.17052426  0.50000000  1
  Si  Si1  6  0.17128944  0.34958556  0.50000000  1
  Si  Si2  3  0.00000000  0.50000000  0.50000000  1
  Si  Si3  1  0.00000000  0.00000000  0.00000000  1
# generated using pymatgen
data_ID_10
_symmetry_space_group_name_H-M   P222
_cell_length_a   4.59436051
_cell_length_b   5.07148377
_cell_length_c   8.55010488
_cell_angle_alpha   90.00000000
_cell_angle_beta   90.00000000
_cell_angle_gamma   90.00000000
_symmetry_Int_Tables_number   16
_chemical_formula_structural   Si
_cell_volume   199.21936571
_cell_formula_units_Z   16
loop_
 _symmetry_equiv_pos_site_id
 _symmetry_equiv_pos_as_xyz
  1  'x, y, z'
  2  '-x, -y, z'
  3  'x, -y, -z'
  4  '-x, y, -z'
loop_
 _atom_site_type_symbol
 _atom_site_label
 _atom_site_symmetry_multiplicity
 _atom_site_fract_x
 _atom_site_fract_y
 _atom_site_fract_z
 _atom_site_occupancy
  Si  Si0  4  0.36898184  0.01446585  0.23479188  1
  Si  Si1  4  0.47034627  0.16711439  0.63610889  1
  Si  Si2  2  0.00000000  0.00000000  0.29713496  1
  Si  Si3  2  0.15780222  0.50000000  0.50000000  1
  Si  Si4  1  0.50000000  0.00000000  0.00000000  1
  Si  Si5  1  0.50000000  0.00000000  0.50000000  1
  Si  Si6  1  0.50000000  0.50000000  0.00000000  1
  Si  Si7  1  0.50000000  0.50000000  0.50000000  1
# generated using pymatgen
data_ID_11
_symmetry_space_group_name_H-M   Cc
_cell_length_a   6.91841896
_cell_length_b   11.75095824
_cell_length_c   13.29797430
_cell_angle_alpha   90.00000000
_cell_angle_beta   98.45669507
_cell_angle_gamma   90.00000000
_symmetry_Int_Tables_number   9
_chemical_formula_structural   Si
_cell_volume   1069.34493831
_cell_formula_units_Z   32
loop_
 _symmetry_equiv_pos_site_id
 _symmetry_equiv_pos_as_xyz
  1  'x, y, z'
  2  'x, -y, z+1/2'
  3  'x+1/2, y+1/2, z'
  4  'x+1/2, -y+1/2, z+1/2'
loop_
 _atom_site_type_symbol
 _atom_site_label
 _atom_site_symmetry_multiplicity
 _atom_site_fract_x
 _atom_site_fract_y
 _atom_site_fract_z
 _atom_site_occupancy
  Si  Si0  4  0.10086842  0.16264867  0.98944469  1
  Si  Si1  4  0.11456323  0.41102266  0.63739096  1
  Si  Si2  4  0.25977778  0.04541086  0.40010926  1
  Si  Si3  4  0.38272401  0.35568656  0.47427012  1
  Si  Si4  4  0.39355580  0.26886952  0.80746630  1
  Si  Si5  4  0.40923522  0.44894446  0.71034393  1
  Si  Si6  4  0.43973849  0.00313226  0.95188892  1
  Si  Si7  4  0.44860587  0.20535507  0.30937469  1
# generated using pymatgen
data_ID_12
_symmetry_space_group_name_H-M   P4_32_12
_cell_length_a   12.24112191
_cell_length_b   12.24112191
_cell_length_c   4.51407933
_cell_angle_alpha   90.00000000
_cell_angle_beta   90.00000000
_cell_angle_gamma   90.00000000
_symmetry_Int_Tables_number   96
_chemical_formula_structural   Si
_cell_volume   676.41251384
_cell_formula_units_Z   16
loop_
 _symmetry_equiv_pos_site_id
 _symmetry_equiv_pos_as_xyz
  1  'x, y, z'
  2  '-y+1/2, x+1/2, z+3/4'
  3  '-x, -y, z+1/2'
  4  'y+1/2, -x+1/2, z+1/4'
  5  'x+1/2, -y+1/2, -z+1/4'
  6  '-y, -x, -z+1/2'
  7  '-x+1/2, y+1/2, -z+3/4'
  8  'y, x, -z'
loop_
 _atom_site_type_symbol
 _atom_site_label
 _atom_site_symmetry_multiplicity
 _atom_site_fract_x
 _atom_site_fract_y
 _atom_site_fract_z
 _atom_site_occupancy
  Si  Si0  8  0.08658244  0.32427460  0.87133956  1
  Si  Si1  4  0.01848961  0.01848961  0.00000000  1
  Si  Si2  4  0.21607117  0.78392883  0.75000000  1
# generated using pymatgen
data_ID_13
_symmetry_space_group_name_H-M   P4_232
_cell_length_a   6.88377779
_cell_length_b   6.88377779
_cell_length_c   6.88377779
_cell_angle_alpha   90.00000000
_cell_angle_beta   90.00000000
_cell_angle_gamma   90.00000000
_symmetry_Int_Tables_number   208
_chemical_formula_structural   Si
_cell_volume   326.19742449
_cell_formula_units_Z   16
loop_
 _symmetry_equiv_pos_site_id
 _symmetry_equiv_pos_as_xyz
  1  'x, y, z'
  2  '-y+1/2, x+1/2, z+1/2'
  3  '-x, -y, z'
  4  'y+1/2, -x+1/2, z+1/2'
  5  'x, -y, -z'
  6  '-y+1/2, -x+1/2, -z+1/2'
  7  '-x, y, -z'
  8  'y+1/2, x+1/2, -z+1/2'
  9  'z, x, y'
  10  'z+1/2, -y+1/2, x+1/2'
  11  'z, -x, -y'
  12  'z+1/2, y+1/2, -x+1/2'
  13  '-z, x, -y'
  14  '-z+1/2, -y+1/2, -x+1/2'
  15  '-z, -x, y'
  16  '-z+1/2, y+1/2, x+1/2'
  17  'y, z, x'
  18  'x+1/2, z+1/2, -y+1/2'
  19  '-y, z, -x'
  20  '-x+1/2, z+1/2, y+1/2'
  21  '-y, -z, x'
  22  '-x+1/2, -z+1/2, -y+1/2'
  23  'y, -z, -x'
  24  'x+1/2, -z+1/2, y+1/2'
loop_
 _atom_site_type_symbol
 _atom_site_label
 _atom_site_symmetry_multiplicity
 _atom_site_fract_x
 _atom_site_fract_y
 _atom_site_fract_z
 _atom_site_occupancy
  Si  Si0  8  0.14245060  0.14245060  0.85754940  1
  Si  Si1  6  0.00000000  0.25000000  0.50000000  1
  Si  Si2  2  0.00000000  0.00000000  0.00000000  1
# generated using pymatgen
data_ID_14
_symmetry_space_group_name_H-M   Pbam
_cell_length_a   8.34902184
_cell_length_b   10.88970867
_cell_length_c   6.08092760
_cell_angle_alpha   90.00000000
_cell_angle_beta   90.00000000
_cell_angle_gamma   90.00000000
_symmetry_Int_Tables_number   55
_chemical_formula_structural   Si
_cell_volume   552.86830170
_cell_formula_units_Z   16
loop_
 _symmetry_equiv_pos_site_id
 _symmetry_equiv_pos_as_xyz
  1  'x, y, z'
  2  '-x, -y, -z'
  3  '-x, -y, z'
  4  'x, y, -z'
  5  'x+1/2, -y+1/2, -z'
  6  '-x+1/2, y+1/2, z'
  7  '-x+1/2, y+1/2, -z'
  8  'x+1/2, -y+1/2, z'
loop_
 _atom_site_type_symbol
 _atom_site_label
 _atom_site_symmetry_multiplicity
 _atom_site_fract_x
 _atom_site_fract_y
 _atom_site_fract_z
 _atom_site_occupancy
  Si  Si0  8  0.15614604  0.07347865  0.12931818  1
  Si  Si1  4  0.16785157  0.36582225  0.50000000  1
  Si  Si2  4  0.23230672  0.06226753  0.50000000  1
# generated using pymatgen
data_ID_15
_symmetry_space_group_name_H-M   Pbam
_cell_length_a   7.35894697
_cell_length_b   7.86614343
_cell_length_c   6.81064975
_cell_angle_alpha   90.00000000
_cell_angle_beta   90.00000000
_cell_angle_gamma   90.00000000
_symmetry_Int_Tables_number   55
_chemical_formula_structural   Si
_cell_volume   394.24489702
_cell_formula_units_Z   16
loop_
 _symmetry_equiv_pos_site_id
 _symmetry_equiv_pos_as_xyz
  1  'x, y, z'
  2  '-x, -y, -z'
  3  '-x, -y, z'
  4  'x, y, -z'
  5  'x+1/2, -y+1/2, -z'
  6  '-x+1/2, y+1/2, z'
  7  '-x+1/2, y+1/2, -z'
  8  'x+1/2, -y+1/2, z'
loop_
 _atom_site_type_symbol
 _atom_site_label
 _atom_site_symmetry_multiplicity
 _atom_site_fract_x
 _atom_site_fract_y
 _atom_site_fract_z
 _atom_site_occupancy
  Si  Si0  8  0.02728340  0.38506439  0.10054920  1
  Si  Si1  8  0.10721229  0.08108878  0.29498363  1
# generated using pymatgen
data_ID_16
_symmetry_space_group_name_H-M   P4_22_12
_cell_length_a   8.27201456
_cell_length_b   8.27201456
_cell_length_c   3.38124706
_cell_angle_alpha   90.00000000
_cell_angle_beta   90.00000000
_cell_angle_gamma   90.00000000
_symmetry_Int_Tables_number   94
_chemical_formula_structural   Si
_cell_volume   231.36597156
_cell_formula_units_Z   16
loop_
 _symmetry_equiv_pos_site_id
 _symmetry_equiv_pos_as_xyz
  1  'x, y, z'
  2  '-y+1/2, x+1/2, z+1/2'
  3  '-x, -y, z'
  4  'y+1/2, -x+1/2, z+1/2'
  5  'x+1/2, -y+1/2, -z+1/2'
  6  '-y, -x, -z'
  7  '-x+1/2, y+1/2, -z+1/2'
  8  'y, x, -z'
loop_
 _atom_site_type_symbol
 _atom_site_label
 _atom_site_symmetry_multiplicity
 _atom_site_fract_x
 _atom_site_fract_y
 _atom_site_fract_z
 _atom_site_occupancy
  Si  Si0  8  0.02848923  0.28836586  0.38307971  1
  Si  Si1  4  0.00000000  0.50000000  0.17066161  1
  Si  Si2  2  0.00000000  0.00000000  0.00000000  1
  Si  Si3  2  0.00000000  0.00000000  0.50000000  1
# generated using pymatgen
data_ID_17
_symmetry_space_group_name_H-M   Immm
_cell_length_a   8.89101215
_cell_length_b   9.14728147
_cell_length_c   12.68720146
_cell_angle_alpha   90.00000000
_cell_angle_beta   90.00000000
_cell_angle_gamma   90.00000000
_symmetry_Int_Tables_number   71
_chemical_formula_structural   Si
_cell_volume   1031.83221568
_cell_formula_units_Z   32
loop_
 _symmetry_equiv_pos_site_id
 _symmetry_equiv_pos_as_xyz
  1  'x, y, z'
  2  '-x, -y, -z'
  3  '-x, -y, z'
  4  'x, y, -z'
  5  'x, -y, -z'
  6  '-x, y, z'
  7  '-x, y, -z'
  8  'x, -y, z'
  9  'x+1/2, y+1/2, z+1/2'
  10  '-x+1/2, -y+1/2, -z+1/2'
  11  '-x+1/2, -y+1/2, z+1/2'
  12  'x+1/2, y+1/2, -z+1/2'
  13  'x+1/2, -y+1/2, -z+1/2'
  14  '-x+1/2, y+1/2, z+1/2'
  15  '-x+1/2, y+1/2, -z+1/2'
  16  'x+1/2, -y+1/2, z+1/2'
loop_
 _atom_site_type_symbol
 _atom_site_label
 _atom_site_symmetry_multiplicity
 _atom_site_fract_x
 _atom_site_fract_y
 _atom_site_fract_z
 _atom_site_occupancy
  Si  Si0  16  0.19749846  0.30998528  0.39768204  1
  Si  Si1  8  0.15360457  0.50000000  0.29732399  1
  Si  Si2  4  0.00000000  0.06450212  0.50000000  1
  Si  Si3  2  0.00000000  0.00000000  0.00000000  1
  Si  Si4  2  0.00000000  0.50000000  0.00000000  1
# generated using pymatgen
data_ID_18
_symmetry_space_group_name_H-M   P-3c1
_cell_length_a   6.94155048
_cell_length_b   6.94155048
_cell_length_c   2.61844103
_cell_angle_alpha   90.00000000
_cell_angle_beta   90.00000000
_cell_angle_gamma   120.00000000
_symmetry_Int_Tables_number   165
_chemical_formula_structural   Si
_cell_volume   109.26634135
_cell_formula_units_Z   16
loop_
 _symmetry_equiv_pos_site_id
 _symmetry_equiv_pos_as_xyz
  1  'x, y, z'
  2  '-x, -y, -z'
  3  '-y, x-y, z'
  4  'y, -x+y, -z'
  5  '-x+y, -x, z'
  6  'x-y, x, -z'
  7  'y, x, -z+1/2'
  8  '-y, -x, z+1/2'
  9  'x-y, -y, -z+1/2'
  10  '-x+y, y, z+1/2'
  11  '-x, -x+y, -z+1/2'
  12  'x, x-y, z+1/2'
loop_
 _atom_site_type_symbol
 _atom_site_label
 _atom_site_symmetry_multiplicity
 _atom_site_fract_x
 _atom_site_fract_y
 _atom_site_fract_z
 _atom_site_occupancy
  Si  Si0  12  0.20024146  0.42998925  0.95518833  1
  Si  Si1  4  0.33333333  0.66666667  0.52979658  1
# generated using pymatgen
data_ID_19
_symmetry_space_group_name_H-M   I4_1/acd
_cell_length_a   7.51303970
_cell_length_b   7.51303970
_cell_length_c   12.06060801
_cell_angle_alpha   90.00000000
_cell_angle_beta   90.00000000
_cell_angle_gamma   90.00000000
_symmetry_Int_Tables_number   142
_chemical_formula_structural   Si
_cell_volume   680.77025189
_cell_formula_units_Z   32
loop_
 _symmetry_equiv_pos_site_id
 _symmetry_equiv_pos_as_xyz
  1  'x, y, z'
  2  '-y, x+1/2, z+1/4'
  3  '-x+1/2, -y+1/2, z+1/2'
  4  'y+1/2, -x, z+3/4'
  5  'x+1/2, -y, -z+1/4'
  6  '-y+1/2, -x+1/2, -z'
  7  '-x, y+1/2, -z+3/4'
  8  'y, x, -z+1/2'
  9  '-x, -y+1/2, -z+1/4'
  10  'y, -x, -z'
  11  'x+1/2, y, -z+3/4'
  12  '-y+1/2, x+1/2, -z+1/2'
  13  '-x+1/2, y+1/2, z'
  14  'y+1/2, x, z+1/4'
  15  'x, -y, z+1/2'
  16  '-y, -x+1/2, z+3/4'
  17  'x+1/2, y+1/2, z+1/2'
  18  '-y+1/2, x, z+3/4'
  19  '-x, -y, z'
  20  'y, -x+1/2, z+1/4'
  21  'x, -y+1/2, -z+3/4'
  22  '-y, -x, -z+1/2'
  23  '-x+1/2, y, -z+1/4'
  24  'y+1/2, x+1/2, -z'
  25  '-x+1/2, -y, -z+3/4'
  26  'y+1/2, -x+1/2, -z+1/2'
  27  'x, y+1/2, -z+1/4'
  28  '-y, x, -z'
  29  '-x, y, z+1/2'
  30  'y, x+1/2, z+3/4'
  31  'x+1/2, -y+1/2, z'
  32  '-y+1/2, -x, z+1/4'
loop_
 _atom_site_type_symbol
 _atom_site_label
 _atom_site_symmetry_multiplicity
 _atom_site_fract_x
 _atom_site_fract_y
 _atom_site_fract_z
 _atom_site_occupancy
  Si  Si0  16  0.22858708  0.22858708  0.25000000  1
  Si  Si1  8  0.00000000  0.00000000  0.00000000  1
  Si  Si2  8  0.00000000  0.00000000  0.25000000  1
# generated using pymatgen
data_ID_20
_symmetry_space_group_name_H-M   Pbcn
_cell_length_a   7.04466395
_cell_length_b   6.14838888
_cell_length_c   12.22656782
_cell_angle_alpha   90.00000000
_cell_angle_beta   90.00000000
_cell_angle_gamma   90.00000000
_symmetry_Int_Tables_number   60
_chemical_formula_structural   Si
_cell_volume   529.57340978
_cell_formula_units_Z   16
loop_
 _symmetry_equiv_pos_site_id
 _symmetry_equiv_pos_as_xyz
  1  'x, y, z'
  2  '-x, -y, -z'
  3  '-x+1/2, -y+1/2, z+1/2'
  4  'x+1/2, y+1/2, -z+1/2'
  5  'x+1/2, -y+1/2, -z'
  6  '-x+1/2, y+1/2, z'
  7  '-x, y, -z+1/2'
  8  'x, -y, z+1/2'
loop_
 _atom_site_type_symbol
 _atom_site_label
 _atom_site_symmetry_multiplicity
 _atom_site_fract_x
 _atom_site_fract_y
 _atom_site_fract_z
 _atom_site_occupancy
  Si  Si0  8  0.18252378  0.01427379  0.82214747  1
  Si  Si1  4  0.00000000  0.00000000  0.00000000  1
  Si  Si2  4  0.00000000  0.50000000  0.00000000  1
# generated using pymatgen
data_ID_21
_symmetry_space_group_name_H-M   P2_12_12_1
_cell_length_a   5.14182144
_cell_length_b   7.90843453
_cell_length_c   9.05029213
_cell_angle_alpha   90.00000000
_cell_angle_beta   90.00000000
_cell_angle_gamma   90.00000000
_symmetry_Int_Tables_number   19
_chemical_formula_structural   Si
_cell_volume   368.01889074
_cell_formula_units_Z   16
loop_
 _symmetry_equiv_pos_site_id
 _symmetry_equiv_pos_as_xyz
  1  'x, y, z'
  2  '-x+1/2, -y, z+1/2'
  3  'x+1/2, -y+1/2, -z'
  4  '-x, y+1/2, -z+1/2'
loop_
 _atom_site_type_symbol
 _atom_site_label
 _atom_site_symmetry_multiplicity
 _atom_site_fract_x
 _atom_site_fract_y
 _atom_site_fract_z
 _atom_site_occupancy
  Si  Si0  4  0.05588712  0.52965643  0.44726220  1
  Si  Si1  4  0.14884595  0.50933248  0.30959180  1
  Si  Si2  4  0.19639944  0.05514454  0.69383262  1
  Si  Si3  4  0.21126900  0.97460240  0.00872666  1
# generated using pymatgen
data_ID_22
_symmetry_space_group_name_H-M   Fm-3m
_cell_length_a   10.03138470
_cell_length_b   10.03138470
_cell_length_c   10.03138470
_cell_angle_alpha   90.00000000
_cell_angle_beta   90.00000000
_cell_angle_gamma   90.00000000
_symmetry_Int_Tables_number   225
_chemical_formula_structural   Si
_cell_volume   1009.44499108
_cell_formula_units_Z   64
loop_
 _symmetry_equiv_pos_site_id
 _symmetry_equiv_pos_as_xyz
  1  'x, y, z'
  2  '-x, -y, -z'
  3  '-y, x, z'
  4  'y, -x, -z'
  5  '-x, -y, z'
  6  'x, y, -z'
  7  'y, -x, z'
  8  '-y, x, -z'
  9  'x, -y, -z'
  10  '-x, y, z'
  11  '-y, -x, -z'
  12  'y, x, z'
  13  '-x, y, -z'
  14  'x, -y, z'
  15  'y, x, -z'
  16  '-y, -x, z'
  17  'z, x, y'
  18  '-z, -x, -y'
  19  'z, -y, x'
  20  '-z, y, -x'
  21  'z, -x, -y'
  22  '-z, x, y'
  23  'z, y, -x'
  24  '-z, -y, x'
  25  '-z, x, -y'
  26  'z, -x, y'
  27  '-z, -y, -x'
  28  'z, y, x'
  29  '-z, -x, y'
  30  'z, x, -y'
  31  '-z, y, x'
  32  'z, -y, -x'
  33  'y, z, x'
  34  '-y, -z, -x'
  35  'x, z, -y'
  36  '-x, -z, y'
  37  '-y, z, -x'
  38  'y, -z, x'
  39  '-x, z, y'
  40  'x, -z, -y'
  41  '-y, -z, x'
  42  'y, z, -x'
  43  '-x, -z, -y'
  44  'x, z, y'
  45  'y, -z, -x'
  46  '-y, z, x'
  47  'x, -z, y'
  48  '-x, z, -y'
  49  'x+1/2, y+1/2, z'
  50  '-x+1/2, -y+1/2, -z'
  51  '-y+1/2, x+1/2, z'
  52  'y+1/2, -x+1/2, -z'
  53  '-x+1/2, -y+1/2, z'
  54  'x+1/2, y+1/2, -z'
  55  'y+1/2, -x+1/2, z'
  56  '-y+1/2, x+1/2, -z'
  57  'x+1/2, -y+1/2, -z'
  58  '-x+1/2, y+1/2, z'
  59  '-y+1/2, -x+1/2, -z'
  60  'y+1/2, x+1/2, z'
  61  '-x+1/2, y+1/2, -z'
  62  'x+1/2, -y+1/2, z'
  63  'y+1/2, x+1/2, -z'
  64  '-y+1/2, -x+1/2, z'
  65  'z+1/2, x+1/2, y'
  66  '-z+1/2, -x+1/2, -y'
  67  'z+1/2, -y+1/2, x'
  68  '-z+1/2, y+1/2, -x'
  69  'z+1/2, -x+1/2, -y'
  70  '-z+1/2, x+1/2, y'
  71  'z+1/2, y+1/2, -x'
  72  '-z+1/2, -y+1/2, x'
  73  '-z+1/2, x+1/2, -y'
  74  'z+1/2, -x+1/2, y'
  75  '-z+1/2, -y+1/2, -x'
  76  'z+1/2, y+1/2, x'
  77  '-z+1/2, -x+1/2, y'
  78  'z+1/2, x+1/2, -y'
  79  '-z+1/2, y+1/2, x'
  80  'z+1/2, -y+1/2, -x'
  81  'y+1/2, z+1/2, x'
  82  '-y+1/2, -z+1/2, -x'
  83  'x+1/2, z+1/2, -y'
  84  '-x+1/2, -z+1/2, y'
  85  '-y+1/2, z+1/2, -x'
  86  'y+1/2, -z+1/2, x'
  87  '-x+1/2, z+1/2, y'
  88  'x+1/2, -z+1/2, -y'
  89  '-y+1/2, -z+1/2, x'
  90  'y+1/2, z+1/2, -x'
  91  '-x+1/2, -z+1/2, -y'
  92  'x+1/2, z+1/2, y'
  93  'y+1/2, -z+1/2, -x'
  94  '-y+1/2, z+1/2, x'
  95  'x+1/2, -z+1/2, y'
  96  '-x+1/2, z+1/2, -y'
  97  'x+1/2, y, z+1/2'
  98  '-x+1/2, -y, -z+1/2'
  99  '-y+1/2, x, z+1/2'
  100  'y+1/2, -x, -z+1/2'
  101  '-x+1/2, -y, z+1/2'
  102  'x+1/2, y, -z+1/2'
  103  'y+1/2, -x, z+1/2'
  104  '-y+1/2, x, -z+1/2'
  105  'x+1/2, -y, -z+1/2'
  106  '-x+1/2, y, z+1/2'
  107  '-y+1/2, -x, -z+1/2'
  108  'y+1/2, x, z+1/2'
  109  '-x+1/2, y, -z+1/2'
  110  'x+1/2, -y, z+1/2'
  111  'y+1/2, x, -z+1/2'
  112  '-y+1/2, -x, z+1/2'
  113  'z+1/2, x, y+1/2'
  114  '-z+1/2, -x, -y+1/2'
  115  'z+1/2, -y, x+1/2'
  116  '-z+1/2, y, -x+1/2'
  117  'z+1/2, -x, -y+1/2'
  118  '-z+1/2, x, y+1/2'
  119  'z+1/2, y, -x+1/2'
  120  '-z+1/2, -y, x+1/2'
  121  '-z+1/2, x, -y+1/2'
  122  'z+1/2, -x, y+1/2'
  123  '-z+1/2, -y, -x+1/2'
  124  'z+1/2, y, x+1/2'
  125  '-z+1/2, -x, y+1/2'
  126  'z+1/2, x, -y+1/2'
  127  '-z+1/2, y, x+1/2'
  128  'z+1/2, -y, -x+1/2'
  129  'y+1/2, z, x+1/2'
  130  '-y+1/2, -z, -x+1/2'
  131  'x+1/2, z, -y+1/2'
  132  '-x+1/2, -z, y+1/2'
  133  '-y+1/2, z, -x+1/2'
  134  'y+1/2, -z, x+1/2'
  135  '-x+1/2, z, y+1/2'
  136  'x+1/2, -z, -y+1/2'
  137  '-y+1/2, -z, x+1/2'
  138  'y+1/2, z, -x+1/2'
  139  '-x+1/2, -z, -y+1/2'
  140  'x+1/2, z, y+1/2'
  141  'y+1/2, -z, -x+1/2'
  142  '-y+1/2, z, x+1/2'
  143  'x+1/2, -z, y+1/2'
  144  '-x+1/2, z, -y+1/2'
  145  'x, y+1/2, z+1/2'
  146  '-x, -y+1/2, -z+1/2'
  147  '-y, x+1/2, z+1/2'
  148  'y, -x+1/2, -z+1/2'
  149  '-x, -y+1/2, z+1/2'
  150  'x, y+1/2, -z+1/2'
  151  'y, -x+1/2, z+1/2'
  152  '-y, x+1/2, -z+1/2'
  153  'x, -y+1/2, -z+1/2'
  154  '-x, y+1/2, z+1/2'
  155  '-y, -x+1/2, -z+1/2'
  156  'y, x+1/2, z+1/2'
  157  '-x, y+1/2, -z+1/2'
  158  'x, -y+1/2, z+1/2'
  159  'y, x+1/2, -z+1/2'
  160  '-y, -x+1/2, z+1/2'
  161  'z, x+1/2, y+1/2'
  162  '-z, -x+1/2, -y+1/2'
  163  'z, -y+1/2, x+1/2'
  164  '-z, y+1/2, -x+1/2'
  165  'z, -x+1/2, -y+1/2'
  166  '-z, x+1/2, y+1/2'
  167  'z, y+1/2, -x+1/2'
  168  '-z, -y+1/2, x+1/2'
  169  '-z, x+1/2, -y+1/2'
  170  'z, -x+1/2, y+1/2'
  171  '-z, -y+1/2, -x+1/2'
  172  'z, y+1/2, x+1/2'
  173  '-z, -x+1/2, y+1/2'
  174  'z, x+1/2, -y+1/2'
  175  '-z, y+1/2, x+1/2'
  176  'z, -y+1/2, -x+1/2'
  177  'y, z+1/2, x+1/2'
  178  '-y, -z+1/2, -x+1/2'
  179  'x, z+1/2, -y+1/2'
  180  '-x, -z+1/2, y+1/2'
  181  '-y, z+1/2, -x+1/2'
  182  'y, -z+1/2, x+1/2'
  183  '-x, z+1/2, y+1/2'
  184  'x, -z+1/2, -y+1/2'
  185  '-y, -z+1/2, x+1/2'
  186  'y, z+1/2, -x+1/2'
  187  '-x, -z+1/2, -y+1/2'
  188  'x, z+1/2, y+1/2'
  189  'y, -z+1/2, -x+1/2'
  190  '-y, z+1/2, x+1/2'
  191  'x, -z+1/2, y+1/2'
  192  '-x, z+1/2, -y+1/2'
loop_
 _atom_site_type_symbol
 _atom_site_label
 _atom_site_symmetry_multiplicity
 _atom_site_fract_x
 _atom_site_fract_y
 _atom_site_fract_z
 _atom_site_occupancy
  Si  Si0  24  0.00000000  0.00000000  0.14458475  1
  Si  Si1  24  0.00000000  0.25000000  0.25000000  1
  Si  Si2  8  0.25000000  0.25000000  0.25000000  1
  Si  Si3  4  0.00000000  0.00000000  0.00000000  1
  Si  Si4  4  0.00000000  0.00000000  0.50000000  1
# generated using pymatgen
data_ID_23
_symmetry_space_group_name_H-M   Ia-3
_cell_length_a   7.32750428
_cell_length_b   7.32750428
_cell_length_c   7.32750428
_cell_angle_alpha   90.00000000
_cell_angle_beta   90.00000000
_cell_angle_gamma   90.00000000
_symmetry_Int_Tables_number   206
_chemical_formula_structural   Si
_cell_volume   393.43069716
_cell_formula_units_Z   32
loop_
 _symmetry_equiv_pos_site_id
 _symmetry_equiv_pos_as_xyz
  1  'x, y, z'
  2  '-x, -y, -z'
  3  '-x, -y+1/2, z'
  4  'x, y+1/2, -z'
  5  'x, -y, -z+1/2'
  6  '-x, y, z+1/2'
  7  '-x, y+1/2, -z+1/2'
  8  'x, -y+1/2, z+1/2'
  9  'z, x, y'
  10  '-z, -x, -y'
  11  'z, -x, -y+1/2'
  12  '-z, x, y+1/2'
  13  '-z+1/2, x, -y'
  14  'z+1/2, -x, y'
  15  '-z+1/2, -x, y+1/2'
  16  'z+1/2, x, -y+1/2'
  17  'y, z, x'
  18  '-y, -z, -x'
  19  '-y+1/2, z, -x'
  20  'y+1/2, -z, x'
  21  '-y, -z+1/2, x'
  22  'y, z+1/2, -x'
  23  'y+1/2, -z+1/2, -x'
  24  '-y+1/2, z+1/2, x'
  25  'x+1/2, y+1/2, z+1/2'
  26  '-x+1/2, -y+1/2, -z+1/2'
  27  '-x+1/2, -y, z+1/2'
  28  'x+1/2, y, -z+1/2'
  29  'x+1/2, -y+1/2, -z'
  30  '-x+1/2, y+1/2, z'
  31  '-x+1/2, y, -z'
  32  'x+1/2, -y, z'
  33  'z+1/2, x+1/2, y+1/2'
  34  '-z+1/2, -x+1/2, -y+1/2'
  35  'z+1/2, -x+1/2, -y'
  36  '-z+1/2, x+1/2, y'
  37  '-z, x+1/2, -y+1/2'
  38  'z, -x+1/2, y+1/2'
  39  '-z, -x+1/2, y'
  40  'z, x+1/2, -y'
  41  'y+1/2, z+1/2, x+1/2'
  42  '-y+1/2, -z+1/2, -x+1/2'
  43  '-y, z+1/2, -x+1/2'
  44  'y, -z+1/2, x+1/2'
  45  '-y+1/2, -z, x+1/2'
  46  'y+1/2, z, -x+1/2'
  47  'y, -z, -x+1/2'
  48  '-y, z, x+1/2'
loop_
 _atom_site_type_symbol
 _atom_site_label
 _atom_site_symmetry_multiplicity
 _atom_site_fract_x
 _atom_site_fract_y
 _atom_site_fract_z
 _atom_site_occupancy
  Si  Si0  16  0.13541720  0.86458280  0.36458280  1
  Si  Si1  8  0.00000000  0.00000000  0.00000000  1
  Si  Si2  8  0.25000000  0.25000000  0.25000000  1
# generated using pymatgen
data_ID_24
_symmetry_space_group_name_H-M   Pm-3
_cell_length_a   7.80333156
_cell_length_b   7.80333156
_cell_length_c   7.80333156
_cell_angle_alpha   90.00000000
_cell_angle_beta   90.00000000
_cell_angle_gamma   90.00000000
_symmetry_Int_Tables_number   200
_chemical_formula_structural   Si
_cell_volume   475.16033660
_cell_formula_units_Z   16
loop_
 _symmetry_equiv_pos_site_id
 _symmetry_equiv_pos_as_xyz
  1  'x, y, z'
  2  '-x, -y, -z'
  3  '-x, -y, z'
  4  'x, y, -z'
  5  'x, -y, -z'
  6  '-x, y, z'
  7  '-x, y, -z'
  8  'x, -y, z'
  9  'z, x, y'
  10  '-z, -x, -y'
  11  'z, -x, -y'
  12  '-z, x, y'
  13  '-z, x, -y'
  14  'z, -x, y'
  15  '-z, -x, y'
  16  'z, x, -y'
  17  'y, z, x'
  18  '-y, -z, -x'
  19  '-y, z, -x'
  20  'y, -z, x'
  21  '-y, -z, x'
  22  'y, z, -x'
  23  'y, -z, -x'
  24  '-y, z, x'
loop_
 _atom_site_type_symbol
 _atom_site_label
 _atom_site_symmetry_multiplicity
 _atom_site_fract_x
 _atom_site_fract_y
 _atom_site_fract_z
 _atom_site_occupancy
  Si  Si0  6  0.00000000  0.33958972  0.50000000  1
  Si  Si1  6  0.00000000  0.50000000  0.19771585  1
  Si  Si2  3  0.00000000  0.00000000  0.50000000  1
  Si  Si3  1  0.00000000  0.00000000  0.00000000  1
# generated using pymatgen
data_ID_25
_symmetry_space_group_name_H-M   I4_1cd
_cell_length_a   9.42875800
_cell_length_b   9.42875800
_cell_length_c   7.83783353
_cell_angle_alpha   90.00000000
_cell_angle_beta   90.00000000
_cell_angle_gamma   90.00000000
_symmetry_Int_Tables_number   110
_chemical_formula_structural   Si
_cell_volume   696.79498033
_cell_formula_units_Z   32
loop_
 _symmetry_equiv_pos_site_id
 _symmetry_equiv_pos_as_xyz
  1  'x, y, z'
  2  '-y, x+1/2, z+1/4'
  3  '-x+1/2, -y+1/2, z+1/2'
  4  'y+1/2, -x, z+3/4'
  5  '-x, y, z+1/2'
  6  'y, x+1/2, z+3/4'
  7  'x+1/2, -y+1/2, z'
  8  '-y+1/2, -x, z+1/4'
  9  'x+1/2, y+1/2, z+1/2'
  10  '-y+1/2, x, z+3/4'
  11  '-x, -y, z'
  12  'y, -x+1/2, z+1/4'
  13  '-x+1/2, y+1/2, z'
  14  'y+1/2, x, z+1/4'
  15  'x, -y, z+1/2'
  16  '-y, -x+1/2, z+3/4'
loop_
 _atom_site_type_symbol
 _atom_site_label
 _atom_site_symmetry_multiplicity
 _atom_site_fract_x
 _atom_site_fract_y
 _atom_site_fract_z
 _atom_site_occupancy
  Si  Si0  16  0.02310747  0.81185649  0.18491278  1
  Si  Si1  16  0.15928014  0.31291721  0.00892370  1
# generated using pymatgen
data_ID_26
_symmetry_space_group_name_H-M   P-3
_cell_length_a   8.78581080
_cell_length_b   8.78581080
_cell_length_c   3.34868791
_cell_angle_alpha   90.00000000
_cell_angle_beta   90.00000000
_cell_angle_gamma   120.00000000
_symmetry_Int_Tables_number   147
_chemical_formula_structural   Si
_cell_volume   223.85613356
_cell_formula_units_Z   16
loop_
 _symmetry_equiv_pos_site_id
 _symmetry_equiv_pos_as_xyz
  1  'x, y, z'
  2  '-x, -y, -z'
  3  '-y, x-y, z'
  4  'y, -x+y, -z'
  5  '-x+y, -x, z'
  6  'x-y, x, -z'
loop_
 _atom_site_type_symbol
 _atom_site_label
 _atom_site_symmetry_multiplicity
 _atom_site_fract_x
 _atom_site_fract_y
 _atom_site_fract_z
 _atom_site_occupancy
  Si  Si0  6  0.00029083  0.72232187  0.65829776  1
  Si  Si1  6  0.21876514  0.70876549  0.99525627  1
  Si  Si2  3  0.00000000  0.50000000  0.00000000  1
  Si  Si3  1  0.00000000  0.00000000  0.50000000  1
# generated using pymatgen
data_ID_27
_symmetry_space_group_name_H-M   Fddd
_cell_length_a   7.87838247
_cell_length_b   8.80183943
_cell_length_c   10.67452000
_cell_angle_alpha   90.00000000
_cell_angle_beta   90.00000000
_cell_angle_gamma   90.00000000
_symmetry_Int_Tables_number   70
_chemical_formula_structural   Si
_cell_volume   740.21666330
_cell_formula_units_Z   64
loop_
 _symmetry_equiv_pos_site_id
 _symmetry_equiv_pos_as_xyz
  1  'x, y, z'
  2  '-x, -y, z'
  3  'x, -y, -z'
  4  '-x, y, -z'
  5  '-x+1/4, -y+1/4, -z+1/4'
  6  'x+1/4, y+1/4, -z+1/4'
  7  '-x+1/4, y+1/4, z+1/4'
  8  'x+1/4, -y+1/4, z+1/4'
  9  'x+1/2, y, z+1/2'
  10  '-x+1/2, -y, z+1/2'
  11  'x+1/2, -y, -z+1/2'
  12  '-x+1/2, y, -z+1/2'
  13  '-x+3/4, -y+1/4, -z+3/4'
  14  'x+3/4, y+1/4, -z+3/4'
  15  '-x+3/4, y+1/4, z+3/4'
  16  'x+3/4, -y+1/4, z+3/4'
  17  'x+1/2, y+1/2, z'
  18  '-x+1/2, -y+1/2, z'
  19  'x+1/2, -y+1/2, -z'
  20  '-x+1/2, y+1/2, -z'
  21  '-x+3/4, -y+3/4, -z+1/4'
  22  'x+3/4, y+3/4, -z+1/4'
  23  '-x+3/4, y+3/4, z+1/4'
  24  'x+3/4, -y+3/4, z+1/4'
  25  'x, y+1/2, z+1/2'
  26  '-x, -y+1/2, z+1/2'
  27  'x, -y+1/2, -z+1/2'
  28  '-x, y+1/2, -z+1/2'
  29  '-x+1/4, -y+3/4, -z+3/4'
  30  'x+1/4, y+3/4, -z+3/4'
  31  '-x+1/4, y+3/4, z+3/4'
  32  'x+1/4, -y+3/4, z+3/4'
loop_
 _atom_site_type_symbol
 _atom_site_label
 _atom_site_symmetry_multiplicity
 _atom_site_fract_x
 _atom_site_fract_y
 _atom_site_fract_z
 _atom_site_occupancy
  Si  Si0  32  0.05405848  0.10494355  0.93115217  1
  Si  Si1  16  0.12500000  0.12500000  0.12500000  1
  Si  Si2  8  0.00000000  0.00000000  0.00000000  1
  Si  Si3  8  0.00000000  0.00000000  0.50000000  1
# generated using pymatgen
data_ID_28
_symmetry_space_group_name_H-M   Pnc2
_cell_length_a   4.97207135
_cell_length_b   5.19096113
_cell_length_c   4.31759596
_cell_angle_alpha   90.00000000
_cell_angle_beta   90.00000000
_cell_angle_gamma   90.00000000
_symmetry_Int_Tables_number   30
_chemical_formula_structural   Si
_cell_volume   111.43641400
_cell_formula_units_Z   16
loop_
 _symmetry_equiv_pos_site_id
 _symmetry_equiv_pos_as_xyz
  1  'x, y, z'
  2  '-x, -y, z'
  3  '-x, y+1/2, z+1/2'
  4  'x, -y+1/2, z+1/2'
loop_
 _atom_site_type_symbol
 _atom_site_label
 _atom_site_symmetry_multiplicity
 _atom_site_fract_x
 _atom_site_fract_y
 _atom_site_fract_z
 _atom_site_occupancy
  Si  Si0  4  0.05771931  0.09460144  0.03902669  1
  Si  Si1  4  0.21497292  0.15329970  0.47097697  1
  Si  Si2  4  0.45160369  0.64591558  0.06464812  1
  Si  Si3  2  0.00000000  0.00000000  0.48211409  1
  Si  Si4  2  0.50000000  0.00000000  0.19562573  1
# generated using pymatgen
data_ID_29
_symmetry_space_group_name_H-M   P2_12_12
_cell_length_a   5.71567141
_cell_length_b   6.97201365
_cell_length_c   9.24700240
_cell_angle_alpha   90.00000000
_cell_angle_beta   90.00000000
_cell_angle_gamma   90.00000000
_symmetry_Int_Tables_number   18
_chemical_formula_structural   Si
_cell_volume   368.49063350
_cell_formula_units_Z   16
loop_
 _symmetry_equiv_pos_site_id
 _symmetry_equiv_pos_as_xyz
  1  'x, y, z'
  2  '-x, -y, z'
  3  'x+1/2, -y+1/2, -z'
  4  '-x+1/2, y+1/2, -z'
loop_
 _atom_site_type_symbol
 _atom_site_label
 _atom_site_symmetry_multiplicity
 _atom_site_fract_x
 _atom_site_fract_y
 _atom_site_fract_z
 _atom_site_occupancy
  Si  Si0  4  0.01669007  0.42012254  0.75109719  1
  Si  Si1  4  0.06272031  0.74155369  0.01152649  1
  Si  Si2  4  0.14098776  0.23401944  0.56894760  1
  Si  Si3  2  0.00000000  0.00000000  0.58893256  1
  Si  Si4  2  0.00000000  0.00000000  0.88656265  1
# generated using pymatgen
data_ID_30
_symmetry_space_group_name_H-M   Ibam
_cell_length_a   8.77088580
_cell_length_b   17.40903622
_cell_length_c   8.07919695
_cell_angle_alpha   90.00000000
_cell_angle_beta   90.00000000
_cell_angle_gamma   90.00000000
_symmetry_Int_Tables_number   72
_chemical_formula_structural   Si
_cell_volume   1233.63414091
_cell_formula_units_Z   32
loop_
 _symmetry_equiv_pos_site_id
 _symmetry_equiv_pos_as_xyz
  1  'x, y, z'
  2  '-x, -y, -z'
  3  '-x, -y, z'
  4  'x, y, -z'
  5  'x, -y, -z+1/2'
  6  '-x, y, z+1/2'
  7  '-x, y, -z+1/2'
  8  'x, -y, z+1/2'
  9  'x+1/2, y+1/2, z+1/2'
  10  '-x+1/2, -y+1/2, -z+1/2'
  11  '-x+1/2, -y+1/2, z+1/2'
  12  'x+1/2, y+1/2, -z+1/2'
  13  'x+1/2, -y+1/2, -z'
  14  '-x+1/2, y+1/2, z'
  15  '-x+1/2, y+1/2, -z'
  16  'x+1/2, -y+1/2, z'
loop_
 _atom_site_type_symbol
 _atom_site_label
 _atom_site_symmetry_multiplicity
 _atom_site_fract_x
 _atom_site_fract_y
 _atom_site_fract_z
 _atom_site_occupancy
  Si  Si0  16  0.08601112  0.90336527  0.24575696  1
  Si  Si1  8  0.24456676  0.20910000  0.00000000  1
  Si  Si2  4  0.00000000  0.00000000  0.00000000  1
  Si  Si3  4  0.00000000  0.00000000  0.25000000  1
# generated using pymatgen
data_ID_31
_symmetry_space_group_name_H-M   P4_2/n
_cell_length_a   5.73928814
_cell_length_b   5.73928814
_cell_length_c   12.41370435
_cell_angle_alpha   90.00000000
_cell_angle_beta   90.00000000
_cell_angle_gamma   90.00000000
_symmetry_Int_Tables_number   86
_chemical_formula_structural   Si
_cell_volume   408.90032570
_cell_formula_units_Z   16
loop_
 _symmetry_equiv_pos_site_id
 _symmetry_equiv_pos_as_xyz
  1  'x, y, z'
  2  '-y+1/2, x+1/2, z+1/2'
  3  '-x, -y, z'
  4  'y+1/2, -x+1/2, z+1/2'
  5  '-x+1/2, -y+1/2, -z+1/2'
  6  'y, -x, -z'
  7  'x+1/2, y+1/2, -z+1/2'
  8  '-y, x, -z'
loop_
 _atom_site_type_symbol
 _atom_site_label
 _atom_site_symmetry_multiplicity
 _atom_site_fract_x
 _atom_site_fract_y
 _atom_site_fract_z
 _atom_site_occupancy
  Si  Si0  8  0.11124942  0.72312226  0.26080687  1
  Si  Si1  4  0.00000000  0.50000000  0.13165045  1
  Si  Si2  4  0.25000000  0.25000000  0.25000000  1
# generated using pymatgen
data_ID_32
_symmetry_space_group_name_H-M   I4/mcm
_cell_length_a   12.76829912
_cell_length_b   12.76829912
_cell_length_c   7.47315451
_cell_angle_alpha   90.00000000
_cell_angle_beta   90.00000000
_cell_angle_gamma   90.00000000
_symmetry_Int_Tables_number   140
_chemical_formula_structural   Si
_cell_volume   1218.34436186
_cell_formula_units_Z   32
loop_
 _symmetry_equiv_pos_site_id
 _symmetry_equiv_pos_as_xyz
  1  'x, y, z'
  2  '-x, -y, -z'
  3  '-y, x, z'
  4  'y, -x, -z'
  5  '-x, -y, z'
  6  'x, y, -z'
  7  'y, -x, z'
  8  '-y, x, -z'
  9  'x, -y, -z+1/2'
  10  '-x, y, z+1/2'
  11  '-y, -x, -z+1/2'
  12  'y, x, z+1/2'
  13  '-x, y, -z+1/2'
  14  'x, -y, z+1/2'
  15  'y, x, -z+1/2'
  16  '-y, -x, z+1/2'
  17  'x+1/2, y+1/2, z+1/2'
  18  '-x+1/2, -y+1/2, -z+1/2'
  19  '-y+1/2, x+1/2, z+1/2'
  20  'y+1/2, -x+1/2, -z+1/2'
  21  '-x+1/2, -y+1/2, z+1/2'
  22  'x+1/2, y+1/2, -z+1/2'
  23  'y+1/2, -x+1/2, z+1/2'
  24  '-y+1/2, x+1/2, -z+1/2'
  25  'x+1/2, -y+1/2, -z'
  26  '-x+1/2, y+1/2, z'
  27  '-y+1/2, -x+1/2, -z'
  28  'y+1/2, x+1/2, z'
  29  '-x+1/2, y+1/2, -z'
  30  'x+1/2, -y+1/2, z'
  31  'y+1/2, x+1/2, -z'
  32  '-y+1/2, -x+1/2, z'
loop_
 _atom_site_type_symbol
 _atom_site_label
 _atom_site_symmetry_multiplicity
 _atom_site_fract_x
 _atom_site_fract_y
 _atom_site_fract_z
 _atom_site_occupancy
  Si  Si0  32  0.02855414  0.23241052  0.17249887  1
# generated using pymatgen
data_ID_33
_symmetry_space_group_name_H-M   P4/nmm
_cell_length_a   5.89911535
_cell_length_b   5.89911535
_cell_length_c   16.68176345
_cell_angle_alpha   90.00000000
_cell_angle_beta   90.00000000
_cell_angle_gamma   90.00000000
_symmetry_Int_Tables_number   129
_chemical_formula_structural   Si
_cell_volume   580.51806045
_cell_formula_units_Z   16
loop_
 _symmetry_equiv_pos_site_id
 _symmetry_equiv_pos_as_xyz
  1  'x, y, z'
  2  '-y+1/2, x+1/2, z'
  3  '-x, -y, z'
  4  'y+1/2, -x+1/2, z'
  5  'x+1/2, -y+1/2, -z'
  6  '-y, -x, -z'
  7  '-x+1/2, y+1/2, -z'
  8  'y, x, -z'
  9  '-x+1/2, -y+1/2, -z'
  10  'y, -x, -z'
  11  'x+1/2, y+1/2, -z'
  12  '-y, x, -z'
  13  '-x, y, z'
  14  'y+1/2, x+1/2, z'
  15  'x, -y, z'
  16  '-y+1/2, -x+1/2, z'
loop_
 _atom_site_type_symbol
 _atom_site_label
 _atom_site_symmetry_multiplicity
 _atom_site_fract_x
 _atom_site_fract_y
 _atom_site_fract_z
 _atom_site_occupancy
  Si  Si0  4  0.25000000  0.25000000  0.00000000  1
  Si  Si1  2  0.00000000  0.00000000  0.00000000  1
  Si  Si2  2  0.00000000  0.00000000  0.50000000  1
  Si  Si3  2  0.00000000  0.50000000  0.18051621  1
  Si  Si4  2  0.00000000  0.50000000  0.35762231  1
  Si  Si5  2  0.00000000  0.50000000  0.57213633  1
  Si  Si6  2  0.00000000  0.50000000  0.67330082  1
# generated using pymatgen
data_ID_34
_symmetry_space_group_name_H-M   P4/mnc
_cell_length_a   6.98328419
_cell_length_b   6.98328419
_cell_length_c   11.27604721
_cell_angle_alpha   90.00000000
_cell_angle_beta   90.00000000
_cell_angle_gamma   90.00000000
_symmetry_Int_Tables_number   128
_chemical_formula_structural   Si
_cell_volume   549.89062785
_cell_formula_units_Z   16
loop_
 _symmetry_equiv_pos_site_id
 _symmetry_equiv_pos_as_xyz
  1  'x, y, z'
  2  '-x, -y, -z'
  3  '-y, x, z'
  4  'y, -x, -z'
  5  '-x, -y, z'
  6  'x, y, -z'
  7  'y, -x, z'
  8  '-y, x, -z'
  9  'x+1/2, -y+1/2, -z+1/2'
  10  '-x+1/2, y+1/2, z+1/2'
  11  '-y+1/2, -x+1/2, -z+1/2'
  12  'y+1/2, x+1/2, z+1/2'
  13  '-x+1/2, y+1/2, -z+1/2'
  14  'x+1/2, -y+1/2, z+1/2'
  15  'y+1/2, x+1/2, -z+1/2'
  16  '-y+1/2, -x+1/2, z+1/2'
loop_
 _atom_site_type_symbol
 _atom_site_label
 _atom_site_symmetry_multiplicity
 _atom_site_fract_x
 _atom_site_fract_y
 _atom_site_fract_z
 _atom_site_occupancy
  Si  Si0  8  0.00000000  0.50000000  0.14274862  1
  Si  Si1  8  0.06234196  0.11657352  0.50000000  1
# generated using pymatgen
data_ID_35
_symmetry_space_group_name_H-M   Pc
_cell_length_a   4.63246663
_cell_length_b   5.98365495
_cell_length_c   3.88767389
_cell_angle_alpha   90.00000000
_cell_angle_beta   110.29143841
_cell_angle_gamma   90.00000000
_symmetry_Int_Tables_number   7
_chemical_formula_structural   Si
_cell_volume   101.07507711
_cell_formula_units_Z   16
loop_
 _symmetry_equiv_pos_site_id
 _symmetry_equiv_pos_as_xyz
  1  'x, y, z'
  2  'x, -y, z+1/2'
loop_
 _atom_site_type_symbol
 _atom_site_label
 _atom_site_symmetry_multiplicity
 _atom_site_fract_x
 _atom_site_fract_y
 _atom_site_fract_z
 _atom_site_occupancy
  Si  Si0  2  0.02029334  0.23575178  0.32551537  1
  Si  Si1  2  0.04437408  0.43844759  0.17060248  1
  Si  Si2  2  0.06891599  0.08819774  0.51595232  1
  Si  Si3  2  0.28151927  0.03214782  0.03417942  1
  Si  Si4  2  0.64185397  0.19329715  0.45068339  1
  Si  Si5  2  0.67100806  0.39492827  0.83988633  1
  Si  Si6  2  0.83967325  0.05001757  0.88859674  1
  Si  Si7  2  0.94080373  0.19822173  0.78035158  1
# generated using pymatgen
data_ID_36
_symmetry_space_group_name_H-M   Pmc2_1
_cell_length_a   6.42592482
_cell_length_b   9.17150905
_cell_length_c   6.63256332
_cell_angle_alpha   90.00000000
_cell_angle_beta   90.00000000
_cell_angle_gamma   90.00000000
_symmetry_Int_Tables_number   26
_chemical_formula_structural   Si
_cell_volume   390.89295531
_cell_formula_units_Z   16
loop_
 _symmetry_equiv_pos_site_id
 _symmetry_equiv_pos_as_xyz
  1  'x, y, z'
  2  '-x, -y, z+1/2'
  3  '-x, y, z'
  4  'x, -y, z+1/2'
loop_
 _atom_site_type_symbol
 _atom_site_label
 _atom_site_symmetry_multiplicity
 _atom_site_fract_x
 _atom_site_fract_y
 _atom_site_fract_z
 _atom_site_occupancy
  Si  Si0  4  0.16256038  0.01093984  0.09422208  1
  Si  Si1  4  0.22819145  0.38712821  0.00055411  1
  Si  Si2  2  0.00000000  0.02473179  0.49252855  1
  Si  Si3  2  0.00000000  0.04354262  0.18732652  1
  Si  Si4  2  0.00000000  0.20936272  0.96153933  1
  Si  Si5  2  0.00000000  0.46624668  0.96638030  1
# generated using pymatgen
data_ID_37
_symmetry_space_group_name_H-M   Im-3
_cell_length_a   9.34803612
_cell_length_b   9.34803612
_cell_length_c   9.34803612
_cell_angle_alpha   90.00000000
_cell_angle_beta   90.00000000
_cell_angle_gamma   90.00000000
_symmetry_Int_Tables_number   204
_chemical_formula_structural   Si
_cell_volume   816.88542207
_cell_formula_units_Z   32
loop_
 _symmetry_equiv_pos_site_id
 _symmetry_equiv_pos_as_xyz
  1  'x, y, z'
  2  '-x, -y, -z'
  3  '-x, -y, z'
  4  'x, y, -z'
  5  'x, -y, -z'
  6  '-x, y, z'
  7  '-x, y, -z'
  8  'x, -y, z'
  9  'z, x, y'
  10  '-z, -x, -y'
  11  'z, -x, -y'
  12  '-z, x, y'
  13  '-z, x, -y'
  14  'z, -x, y'
  15  '-z, -x, y'
  16  'z, x, -y'
  17  'y, z, x'
  18  '-y, -z, -x'
  19  '-y, z, -x'
  20  'y, -z, x'
  21  '-y, -z, x'
  22  'y, z, -x'
  23  'y, -z, -x'
  24  '-y, z, x'
  25  'x+1/2, y+1/2, z+1/2'
  26  '-x+1/2, -y+1/2, -z+1/2'
  27  '-x+1/2, -y+1/2, z+1/2'
  28  'x+1/2, y+1/2, -z+1/2'
  29  'x+1/2, -y+1/2, -z+1/2'
  30  '-x+1/2, y+1/2, z+1/2'
  31  '-x+1/2, y+1/2, -z+1/2'
  32  'x+1/2, -y+1/2, z+1/2'
  33  'z+1/2, x+1/2, y+1/2'
  34  '-z+1/2, -x+1/2, -y+1/2'
  35  'z+1/2, -x+1/2, -y+1/2'
  36  '-z+1/2, x+1/2, y+1/2'
  37  '-z+1/2, x+1/2, -y+1/2'
  38  'z+1/2, -x+1/2, y+1/2'
  39  '-z+1/2, -x+1/2, y+1/2'
  40  'z+1/2, x+1/2, -y+1/2'
  41  'y+1/2, z+1/2, x+1/2'
  42  '-y+1/2, -z+1/2, -x+1/2'
  43  '-y+1/2, z+1/2, -x+1/2'
  44  'y+1/2, -z+1/2, x+1/2'
  45  '-y+1/2, -z+1/2, x+1/2'
  46  'y+1/2, z+1/2, -x+1/2'
  47  'y+1/2, -z+1/2, -x+1/2'
  48  '-y+1/2, z+1/2, x+1/2'
loop_
 _atom_site_type_symbol
 _atom_site_label
 _atom_site_symmetry_multiplicity
 _atom_site_fract_x
 _atom_site_fract_y
 _atom_site_fract_z
 _atom_site_occupancy
  Si  Si0  24  0.00000000  0.12411999  0.43783110  1
  Si  Si1  8  0.25000000  0.25000000  0.25000000  1
# generated using pymatgen
data_ID_38
_symmetry_space_group_name_H-M   P4
_cell_length_a   3.06664633
_cell_length_b   3.06664633
_cell_length_c   16.71483056
_cell_angle_alpha   90.00000000
_cell_angle_beta   90.00000000
_cell_angle_gamma   90.00000000
_symmetry_Int_Tables_number   75
_chemical_formula_structural   Si
_cell_volume   157.19161073
_cell_formula_units_Z   16
loop_
 _symmetry_equiv_pos_site_id
 _symmetry_equiv_pos_as_xyz
  1  'x, y, z'
  2  '-y, x, z'
  3  '-x, -y, z'
  4  'y, -x, z'
loop_
 _atom_site_type_symbol
 _atom_site_label
 _atom_site_symmetry_multiplicity
 _atom_site_fract_x
 _atom_site_fract_y
 _atom_site_fract_z
 _atom_site_occupancy
  Si  Si0  4  0.04432247  0.69161260  0.70206107  1
  Si  Si1  4  0.22189708  0.23096480  0.26466012  1
  Si  Si2  2  0.00000000  0.50000000  0.35903378  1
  Si  Si3  2  0.00000000  0.50000000  0.48864764  1
  Si  Si4  1  0.00000000  0.00000000  0.55702562  1
  Si  Si5  1  0.50000000  0.50000000  0.11283336  1
  Si  Si6  1  0.50000000  0.50000000  0.55731904  1
  Si  Si7  1  0.50000000  0.50000000  0.87781452  1
# generated using pymatgen
data_ID_39
_symmetry_space_group_name_H-M   Cmc2_1
_cell_length_a   11.36836447
_cell_length_b   8.21796681
_cell_length_c   5.20458097
_cell_angle_alpha   90.00000000
_cell_angle_beta   90.00000000
_cell_angle_gamma   90.00000000
_symmetry_Int_Tables_number   36
_chemical_formula_structural   Si
_cell_volume   486.23715505
_cell_formula_units_Z   32
loop_
 _symmetry_equiv_pos_site_id
 _symmetry_equiv_pos_as_xyz
  1  'x, y, z'
  2  '-x, -y, z+1/2'
  3  '-x, y, z'
  4  'x, -y, z+1/2'
  5  'x+1/2, y+1/2, z'
  6  '-x+1/2, -y+1/2, z+1/2'
  7  '-x+1/2, y+1/2, z'
  8  'x+1/2, -y+1/2, z+1/2'
loop_
 _atom_site_type_symbol
 _atom_site_label
 _atom_site_symmetry_multiplicity
 _atom_site_fract_x
 _atom_site_fract_y
 _atom_site_fract_z
 _atom_site_occupancy
  Si  Si0  8  0.07594005  0.40034586  0.09345437  1
  Si  Si1  8  0.10233608  0.17954698  0.38905191  1
  Si  Si2  8  0.23577979  0.35061537  0.03038872  1
  Si  Si3  4  0.00000000  0.17073951  0.49023695  1
  Si  Si4  4  0.00000000  0.36152286  0.41696198  1
# generated using pymatgen
data_ID_40
_symmetry_space_group_name_H-M   P321
_cell_length_a   5.55980840
_cell_length_b   5.55980840
_cell_length_c   9.00902297
_cell_angle_alpha   90.00000000
_cell_angle_beta   90.00000000
_cell_angle_gamma   120.00000000
_symmetry_Int_Tables_number   150
_chemical_formula_structural   Si
_cell_volume   241.17260628
_cell_formula_units_Z   16
loop_
 _symmetry_equiv_pos_site_id
 _symmetry_equiv_pos_as_xyz
  1  'x, y, z'
  2  '-y, x-y, z'
  3  '-x+y, -x, z'
  4  'y, x, -z'
  5  'x-y, -y, -z'
  6  '-x, -x+y, -z'
loop_
 _atom_site_type_symbol
 _atom_site_label
 _atom_site_symmetry_multiplicity
 _atom_site_fract_x
 _atom_site_fract_y
 _atom_site_fract_z
 _atom_site_occupancy
  Si  Si0  6  0.12087718  0.75629555  0.39296093  1
  Si  Si1  6  0.20895643  0.67193745  0.94415157  1
  Si  Si2  2  0.00000000  0.00000000  0.08412087  1
  Si  Si3  2  0.00000000  0.00000000  0.23046133  1
# generated using pymatgen
data_ID_41
_symmetry_space_group_name_H-M   I4_1/amd
_cell_length_a   5.95513110
_cell_length_b   5.95513110
_cell_length_c   15.04302780
_cell_angle_alpha   90.00000000
_cell_angle_beta   90.00000000
_cell_angle_gamma   90.00000000
_symmetry_Int_Tables_number   141
_chemical_formula_structural   Si
_cell_volume   533.47971626
_cell_formula_units_Z   32
loop_
 _symmetry_equiv_pos_site_id
 _symmetry_equiv_pos_as_xyz
  1  'x, y, z'
  2  '-y, x+1/2, z+1/4'
  3  '-x+1/2, -y+1/2, z+1/2'
  4  'y+1/2, -x, z+3/4'
  5  'x, -y+1/2, -z+1/4'
  6  '-y, -x, -z'
  7  '-x+1/2, y, -z+3/4'
  8  'y+1/2, x+1/2, -z+1/2'
  9  '-x, -y+1/2, -z+1/4'
  10  'y, -x, -z'
  11  'x+1/2, y, -z+3/4'
  12  '-y+1/2, x+1/2, -z+1/2'
  13  '-x, y, z'
  14  'y, x+1/2, z+1/4'
  15  'x+1/2, -y+1/2, z+1/2'
  16  '-y+1/2, -x, z+3/4'
  17  'x+1/2, y+1/2, z+1/2'
  18  '-y+1/2, x, z+3/4'
  19  '-x, -y, z'
  20  'y, -x+1/2, z+1/4'
  21  'x+1/2, -y, -z+3/4'
  22  '-y+1/2, -x+1/2, -z+1/2'
  23  '-x, y+1/2, -z+1/4'
  24  'y, x, -z'
  25  '-x+1/2, -y, -z+3/4'
  26  'y+1/2, -x+1/2, -z+1/2'
  27  'x, y+1/2, -z+1/4'
  28  '-y, x, -z'
  29  '-x+1/2, y+1/2, z+1/2'
  30  'y+1/2, x, z+3/4'
  31  'x, -y, z'
  32  '-y, -x+1/2, z+1/4'
loop_
 _atom_site_type_symbol
 _atom_site_label
 _atom_site_symmetry_multiplicity
 _atom_site_fract_x
 _atom_site_fract_y
 _atom_site_fract_z
 _atom_site_occupancy
  Si  Si0  16  0.00000000  0.23813067  0.35482243  1
  Si  Si1  8  0.00000000  0.00000000  0.33767671  1
  Si  Si2  8  0.00000000  0.00000000  0.43351983  1
# generated using pymatgen
data_ID_42
_symmetry_space_group_name_H-M   P-1
_cell_length_a   6.12037162
_cell_length_b   7.93727582
_cell_length_c   10.95270580
_cell_angle_alpha   73.63687508
_cell_angle_beta   78.15851063
_cell_angle_gamma   89.41505178
_symmetry_Int_Tables_number   2
_chemical_formula_structural   Si
_cell_volume   499.01429560
_cell_formula_units_Z   16
loop_
 _symmetry_equiv_pos_site_id
 _symmetry_equiv_pos_as_xyz
  1  'x, y, z'
  2  '-x, -y, -z'
loop_
 _atom_site_type_symbol
 _atom_site_label
 _atom_site_symmetry_multiplicity
 _atom_site_fract_x
 _atom_site_fract_y
 _atom_site_fract_z
 _atom_site_occupancy
  Si  Si0  2  0.03881661  0.15058934  0.62390149  1
  Si  Si1  2  0.28491350  0.48351161  0.23047178  1
  Si  Si2  2  0.42829680  0.17567723  0.03369970  1
  Si  Si3  2  0.45365267  0.36066660  0.74894418  1
  Si  Si4  2  0.47604049  0.62702795  0.09396333  1
  Si  Si5  1  0.00000000  0.00000000  0.00000000  1
  Si  Si6  1  0.00000000  0.00000000  0.50000000  1
  Si  Si7  1  0.00000000  0.50000000  0.50000000  1
  Si  Si8  1  0.50000000  0.00000000  0.00000000  1
  Si  Si9  1  0.50000000  0.00000000  0.50000000  1
  Si  Si10  1  0.50000000  0.50000000  0.50000000  1
# generated using pymatgen
data_ID_43
_symmetry_space_group_name_H-M   P6_322
_cell_length_a   5.73252407
_cell_length_b   5.73252407
_cell_length_c   22.37344026
_cell_angle_alpha   90.00000000
_cell_angle_beta   90.00000000
_cell_angle_gamma   120.00000000
_symmetry_Int_Tables_number   182
_chemical_formula_structural   Si
_cell_volume   636.72979732
_cell_formula_units_Z   16
loop_
 _symmetry_equiv_pos_site_id
 _symmetry_equiv_pos_as_xyz
  1  'x, y, z'
  2  'x-y, x, z+1/2'
  3  '-y, x-y, z'
  4  '-x, -y, z+1/2'
  5  '-x+y, -x, z'
  6  'y, -x+y, z+1/2'
  7  '-y, -x, -z+1/2'
  8  '-x, -x+y, -z'
  9  '-x+y, y, -z+1/2'
  10  'y, x, -z'
  11  'x, x-y, -z+1/2'
  12  'x-y, -y, -z'
loop_
 _atom_site_type_symbol
 _atom_site_label
 _atom_site_symmetry_multiplicity
 _atom_site_fract_x
 _atom_site_fract_y
 _atom_site_fract_z
 _atom_site_occupancy
  Si  Si0  12  0.06556417  0.29842825  0.06595642  1
  Si  Si1  4  0.33333333  0.66666667  0.91071409  1
# generated using pymatgen
data_ID_44
_symmetry_space_group_name_H-M   Pbcn
_cell_length_a   5.37707535
_cell_length_b   18.92535690
_cell_length_c   3.21080800
_cell_angle_alpha   90.00000000
_cell_angle_beta   90.00000000
_cell_angle_gamma   90.00000000
_symmetry_Int_Tables_number   60
_chemical_formula_structural   Si
_cell_volume   326.74167978
_cell_formula_units_Z   16
loop_
 _symmetry_equiv_pos_site_id
 _symmetry_equiv_pos_as_xyz
  1  'x, y, z'
  2  '-x, -y, -z'
  3  '-x+1/2, -y+1/2, z+1/2'
  4  'x+1/2, y+1/2, -z+1/2'
  5  'x+1/2, -y+1/2, -z'
  6  '-x+1/2, y+1/2, z'
  7  '-x, y, -z+1/2'
  8  'x, -y, z+1/2'
loop_
 _atom_site_type_symbol
 _atom_site_label
 _atom_site_symmetry_multiplicity
 _atom_site_fract_x
 _atom_site_fract_y
 _atom_site_fract_z
 _atom_site_occupancy
  Si  Si0  8  0.15035358  0.21066137  0.94168726  1
  Si  Si1  4  0.00000000  0.14998376  0.75000000  1
  Si  Si2  4  0.00000000  0.37394591  0.25000000  1
# generated using pymatgen
data_ID_45
_symmetry_space_group_name_H-M   P-4n2
_cell_length_a   4.63572445
_cell_length_b   4.63572445
_cell_length_c   13.28027200
_cell_angle_alpha   90.00000000
_cell_angle_beta   90.00000000
_cell_angle_gamma   90.00000000
_symmetry_Int_Tables_number   118
_chemical_formula_structural   Si
_cell_volume   285.39226439
_cell_formula_units_Z   16
loop_
 _symmetry_equiv_pos_site_id
 _symmetry_equiv_pos_as_xyz
  1  'x, y, z'
  2  'y, -x, -z'
  3  '-x, -y, z'
  4  '-y, x, -z'
  5  '-x+1/2, y+1/2, z+1/2'
  6  '-y+1/2, -x+1/2, -z+1/2'
  7  'x+1/2, -y+1/2, z+1/2'
  8  'y+1/2, x+1/2, -z+1/2'
loop_
 _atom_site_type_symbol
 _atom_site_label
 _atom_site_symmetry_multiplicity
 _atom_site_fract_x
 _atom_site_fract_y
 _atom_site_fract_z
 _atom_site_occupancy
  Si  Si0  4  0.00000000  0.00000000  0.25420242  1
  Si  Si1  4  0.00000000  0.50000000  0.64377583  1
  Si  Si2  4  0.20592747  0.70592747  0.75000000  1
  Si  Si3  2  0.00000000  0.50000000  0.25000000  1
  Si  Si4  2  0.00000000  0.50000000  0.75000000  1
# generated using pymatgen
data_ID_46
_symmetry_space_group_name_H-M   P4_132
_cell_length_a   7.03086190
_cell_length_b   7.03086190
_cell_length_c   7.03086190
_cell_angle_alpha   90.00000000
_cell_angle_beta   90.00000000
_cell_angle_gamma   90.00000000
_symmetry_Int_Tables_number   213
_chemical_formula_structural   Si
_cell_volume   347.55673060
_cell_formula_units_Z   16
loop_
 _symmetry_equiv_pos_site_id
 _symmetry_equiv_pos_as_xyz
  1  'x, y, z'
  2  '-y+1/4, x+3/4, z+1/4'
  3  '-x+1/2, -y, z+1/2'
  4  'y+1/4, -x+1/4, z+3/4'
  5  'x+1/2, -y+1/2, -z'
  6  '-y+3/4, -x+3/4, -z+3/4'
  7  '-x, y+1/2, -z+1/2'
  8  'y+3/4, x+1/4, -z+1/4'
  9  'z, x, y'
  10  'z+1/4, -y+1/4, x+3/4'
  11  'z+1/2, -x+1/2, -y'
  12  'z+3/4, y+1/4, -x+1/4'
  13  '-z, x+1/2, -y+1/2'
  14  '-z+3/4, -y+3/4, -x+3/4'
  15  '-z+1/2, -x, y+1/2'
  16  '-z+1/4, y+3/4, x+1/4'
  17  'y, z, x'
  18  'x+3/4, z+1/4, -y+1/4'
  19  '-y, z+1/2, -x+1/2'
  20  '-x+1/4, z+3/4, y+1/4'
  21  '-y+1/2, -z, x+1/2'
  22  '-x+3/4, -z+3/4, -y+3/4'
  23  'y+1/2, -z+1/2, -x'
  24  'x+1/4, -z+1/4, y+3/4'
loop_
 _atom_site_type_symbol
 _atom_site_label
 _atom_site_symmetry_multiplicity
 _atom_site_fract_x
 _atom_site_fract_y
 _atom_site_fract_z
 _atom_site_occupancy
  Si  Si0  12  0.09984300  0.87500000  0.65015700  1
  Si  Si1  4  0.12500000  0.37500000  0.62500000  1
# generated using pymatgen
data_ID_47
_symmetry_space_group_name_H-M   Pnnn
_cell_length_a   3.09056456
_cell_length_b   7.51614593
_cell_length_c   7.66023183
_cell_angle_alpha   90.00000000
_cell_angle_beta   90.00000000
_cell_angle_gamma   90.00000000
_symmetry_Int_Tables_number   48
_chemical_formula_structural   Si
_cell_volume   177.94055338
_cell_formula_units_Z   16
loop_
 _symmetry_equiv_pos_site_id
 _symmetry_equiv_pos_as_xyz
  1  'x, y, z'
  2  '-x, -y, z'
  3  'x, -y, -z'
  4  '-x, y, -z'
  5  '-x+1/2, -y+1/2, -z+1/2'
  6  'x+1/2, y+1/2, -z+1/2'
  7  '-x+1/2, y+1/2, z+1/2'
  8  'x+1/2, -y+1/2, z+1/2'
loop_
 _atom_site_type_symbol
 _atom_site_label
 _atom_site_symmetry_multiplicity
 _atom_site_fract_x
 _atom_site_fract_y
 _atom_site_fract_z
 _atom_site_occupancy
  Si  Si0  8  0.14091036  0.14384991  0.41107627  1
  Si  Si1  4  0.00000000  0.00000000  0.32557216  1
  Si  Si2  2  0.00000000  0.00000000  0.50000000  1
  Si  Si3  2  0.00000000  0.50000000  0.00000000  1
# generated using pymatgen
data_ID_48
_symmetry_space_group_name_H-M   C2
_cell_length_a   9.51991564
_cell_length_b   8.10483541
_cell_length_c   16.30569856
_cell_angle_alpha   90.00000000
_cell_angle_beta   102.60638379
_cell_angle_gamma   90.00000000
_symmetry_Int_Tables_number   5
_chemical_formula_structural   Si
_cell_volume   1227.77466418
_cell_formula_units_Z   32
loop_
 _symmetry_equiv_pos_site_id
 _symmetry_equiv_pos_as_xyz
  1  'x, y, z'
  2  '-x, y, -z'
  3  'x+1/2, y+1/2, z'
  4  '-x+1/2, y+1/2, -z'
loop_
 _atom_site_type_symbol
 _atom_site_label
 _atom_site_symmetry_multiplicity
 _atom_site_fract_x
 _atom_site_fract_y
 _atom_site_fract_z
 _atom_site_occupancy
  Si  Si0  4  0.07149290  0.49554078  0.99854447  1
  Si  Si1  4  0.13885585  0.41367172  0.73660869  1
  Si  Si2  4  0.15059807  0.82716625  0.23203317  1
  Si  Si3  4  0.18884664  0.41207973  0.42475417  1
  Si  Si4  4  0.21045937  0.14873303  0.53081504  1
  Si  Si5  4  0.21480405  0.93260788  0.94153996  1
  Si  Si6  4  0.21678688  0.22565089  0.17592512  1
  Si  Si7  4  0.22908039  0.46580566  0.83640363  1
# generated using pymatgen
data_ID_49
_symmetry_space_group_name_H-M   P321
_cell_length_a   6.44129305
_cell_length_b   6.44129305
_cell_length_c   15.52007002
_cell_angle_alpha   90.00000000
_cell_angle_beta   90.00000000
_cell_angle_gamma   120.00000000
_symmetry_Int_Tables_number   150
_chemical_formula_structural   Si
_cell_volume   557.66119322
_cell_formula_units_Z   16
loop_
 _symmetry_equiv_pos_site_id
 _symmetry_equiv_pos_as_xyz
  1  'x, y, z'
  2  '-y, x-y, z'
  3  '-x+y, -x, z'
  4  'y, x, -z'
  5  'x-y, -y, -z'
  6  '-x, -x+y, -z'
loop_
 _atom_site_type_symbol
 _atom_site_label
 _atom_site_symmetry_multiplicity
 _atom_site_fract_x
 _atom_site_fract_y
 _atom_site_fract_z
 _atom_site_occupancy
  Si  Si0  6  0.09614266  0.27477659  0.41766445  1
  Si  Si1  6  0.12926494  0.65079055  0.84563822  1
  Si  Si2  3  0.00000000  0.15531470  0.00000000  1
  Si  Si3  1  0.00000000  0.00000000  0.50000000  1
# generated using pymatgen
data_ID_50
_symmetry_space_group_name_H-M   P4_332
_cell_length_a   5.40052748
_cell_length_b   5.40052748
_cell_length_c   5.40052748
_cell_angle_alpha   90.00000000
_cell_angle_beta   90.00000000
_cell_angle_gamma   90.00000000
_symmetry_Int_Tables_number   212
_chemical_formula_structural   Si
_cell_volume   157.51014873
_cell_formula_units_Z   16
loop_
 _symmetry_equiv_pos_site_id
 _symmetry_equiv_pos_as_xyz
  1  'x, y, z'
  2  '-y+3/4, x+1/4, z+3/4'
  3  '-x+1/2, -y, z+1/2'
  4  'y+3/4, -x+3/4, z+1/4'
  5  'x+1/2, -y+1/2, -z'
  6  '-y+1/4, -x+1/4, -z+1/4'
  7  '-x, y+1/2, -z+1/2'
  8  'y+1/4, x+3/4, -z+3/4'
  9  'z, x, y'
  10  'z+3/4, -y+3/4, x+1/4'
  11  'z+1/2, -x+1/2, -y'
  12  'z+1/4, y+3/4, -x+3/4'
  13  '-z, x+1/2, -y+1/2'
  14  '-z+1/4, -y+1/4, -x+1/4'
  15  '-z+1/2, -x, y+1/2'
  16  '-z+3/4, y+1/4, x+3/4'
  17  'y, z, x'
  18  'x+1/4, z+3/4, -y+3/4'
  19  '-y, z+1/2, -x+1/2'
  20  '-x+3/4, z+1/4, y+3/4'
  21  '-y+1/2, -z, x+1/2'
  22  '-x+1/4, -z+1/4, -y+1/4'
  23  'y+1/2, -z+1/2, -x'
  24  'x+3/4, -z+3/4, y+1/4'
loop_
 _atom_site_type_symbol
 _atom_site_label
 _atom_site_symmetry_multiplicity
 _atom_site_fract_x
 _atom_site_fract_y
 _atom_site_fract_z
 _atom_site_occupancy
  Si  Si0  8  0.12337555  0.62337555  0.87662445  1
  Si  Si1  4  0.12500000  0.12500000  0.12500000  1
  Si  Si2  4  0.12500000  0.87500000  0.37500000  1
# generated using pymatgen
data_ID_51
_symmetry_space_group_name_H-M   I4
_cell_length_a   4.89024901
_cell_length_b   4.89024901
_cell_length_c   10.61842633
_cell_angle_alpha   90.00000000
_cell_angle_beta   90.00000000
_cell_angle_gamma   90.00000000
_symmetry_Int_Tables_number   79
_chemical_formula_structural   Si
_cell_volume   253.93473249
_cell_formula_units_Z   32
loop_
 _symmetry_equiv_pos_site_id
 _symmetry_equiv_pos_as_xyz
  1  'x, y, z'
  2  '-y, x, z'
  3  '-x, -y, z'
  4  'y, -x, z'
  5  'x+1/2, y+1/2, z+1/2'
  6  '-y+1/2, x+1/2, z+1/2'
  7  '-x+1/2, -y+1/2, z+1/2'
  8  'y+1/2, -x+1/2, z+1/2'
loop_
 _atom_site_type_symbol
 _atom_site_label
 _atom_site_symmetry_multiplicity
 _atom_site_fract_x
 _atom_site_fract_y
 _atom_site_fract_z
 _atom_site_occupancy
  Si  Si0  8  0.01496003  0.35151911  0.87563785  1
  Si  Si1  8  0.16629551  0.17063112  0.48427812  1
  Si  Si2  8  0.22122704  0.26904538  0.36418389  1
  Si  Si3  2  0.00000000  0.00000000  0.18131956  1
  Si  Si4  2  0.00000000  0.00000000  0.48215099  1
  Si  Si5  2  0.00000000  0.00000000  0.74685810  1
  Si  Si6  2  0.00000000  0.00000000  0.88925715  1
# generated using pymatgen
data_ID_52
_symmetry_space_group_name_H-M   Iba2
_cell_length_a   6.69204849
_cell_length_b   15.48628007
_cell_length_c   6.43609237
_cell_angle_alpha   90.00000000
_cell_angle_beta   90.00000000
_cell_angle_gamma   90.00000000
_symmetry_Int_Tables_number   45
_chemical_formula_structural   Si
_cell_volume   667.00402867
_cell_formula_units_Z   32
loop_
 _symmetry_equiv_pos_site_id
 _symmetry_equiv_pos_as_xyz
  1  'x, y, z'
  2  '-x, -y, z'
  3  '-x, y, z+1/2'
  4  'x, -y, z+1/2'
  5  'x+1/2, y+1/2, z+1/2'
  6  '-x+1/2, -y+1/2, z+1/2'
  7  '-x+1/2, y+1/2, z'
  8  'x+1/2, -y+1/2, z'
loop_
 _atom_site_type_symbol
 _atom_site_label
 _atom_site_symmetry_multiplicity
 _atom_site_fract_x
 _atom_site_fract_y
 _atom_site_fract_z
 _atom_site_occupancy
  Si  Si0  8  0.03875982  0.28316199  0.43706148  1
  Si  Si1  8  0.08186549  0.17774553  0.48262178  1
  Si  Si2  8  0.15663956  0.19138762  0.01334363  1
  Si  Si3  8  0.17257357  0.08074461  0.42545965  1
# generated using pymatgen
data_ID_53
_symmetry_space_group_name_H-M   R-3m
_cell_length_a   12.75734714
_cell_length_b   12.75734714
_cell_length_c   5.76698311
_cell_angle_alpha   90.00000000
_cell_angle_beta   90.00000000
_cell_angle_gamma   120.00000000
_symmetry_Int_Tables_number   166
_chemical_formula_structural   Si
_cell_volume   812.83062468
_cell_formula_units_Z   48
loop_
 _symmetry_equiv_pos_site_id
 _symmetry_equiv_pos_as_xyz
  1  'x, y, z'
  2  '-x, -y, -z'
  3  '-y, x-y, z'
  4  'y, -x+y, -z'
  5  '-x+y, -x, z'
  6  'x-y, x, -z'
  7  'y, x, -z'
  8  '-y, -x, z'
  9  'x-y, -y, -z'
  10  '-x+y, y, z'
  11  '-x, -x+y, -z'
  12  'x, x-y, z'
  13  'x+2/3, y+1/3, z+1/3'
  14  '-x+2/3, -y+1/3, -z+1/3'
  15  '-y+2/3, x-y+1/3, z+1/3'
  16  'y+2/3, -x+y+1/3, -z+1/3'
  17  '-x+y+2/3, -x+1/3, z+1/3'
  18  'x-y+2/3, x+1/3, -z+1/3'
  19  'y+2/3, x+1/3, -z+1/3'
  20  '-y+2/3, -x+1/3, z+1/3'
  21  'x-y+2/3, -y+1/3, -z+1/3'
  22  '-x+y+2/3, y+1/3, z+1/3'
  23  '-x+2/3, -x+y+1/3, -z+1/3'
  24  'x+2/3, x-y+1/3, z+1/3'
  25  'x+1/3, y+2/3, z+2/3'
  26  '-x+1/3, -y+2/3, -z+2/3'
  27  '-y+1/3, x-y+2/3, z+2/3'
  28  'y+1/3, -x+y+2/3, -z+2/3'
  29  '-x+y+1/3, -x+2/3, z+2/3'
  30  'x-y+1/3, x+2/3, -z+2/3'
  31  'y+1/3, x+2/3, -z+2/3'
  32  '-y+1/3, -x+2/3, z+2/3'
  33  'x-y+1/3, -y+2/3, -z+2/3'
  34  '-x+y+1/3, y+2/3, z+2/3'
  35  '-x+1/3, -x+y+2/3, -z+2/3'
  36  'x+1/3, x-y+2/3, z+2/3'
loop_
 _atom_site_type_symbol
 _atom_site_label
 _atom_site_symmetry_multiplicity
 _atom_site_fract_x
 _atom_site_fract_y
 _atom_site_fract_z
 _atom_site_occupancy
  Si  Si0  36  0.01507545  0.18657908  0.80699325  1
  Si  Si1  9  0.00000000  0.50000000  0.50000000  1
  Si  Si2  3  0.00000000  0.00000000  0.50000000  1
# generated using pymatgen
data_ID_54
_symmetry_space_group_name_H-M   P4_2cm
_cell_length_a   6.88508125
_cell_length_b   6.88508125
_cell_length_c   9.30012990
_cell_angle_alpha   90.00000000
_cell_angle_beta   90.00000000
_cell_angle_gamma   90.00000000
_symmetry_Int_Tables_number   101
_chemical_formula_structural   Si
_cell_volume   440.86655521
_cell_formula_units_Z   16
loop_
 _symmetry_equiv_pos_site_id
 _symmetry_equiv_pos_as_xyz
  1  'x, y, z'
  2  '-y, x, z+1/2'
  3  '-x, -y, z'
  4  'y, -x, z+1/2'
  5  '-x, y, z+1/2'
  6  'y, x, z'
  7  'x, -y, z+1/2'
  8  '-y, -x, z'
loop_
 _atom_site_type_symbol
 _atom_site_label
 _atom_site_symmetry_multiplicity
 _atom_site_fract_x
 _atom_site_fract_y
 _atom_site_fract_z
 _atom_site_occupancy
  Si  Si0  8  0.05366218  0.22520705  0.35267453  1
  Si  Si1  4  0.24971628  0.24971628  0.52327417  1
  Si  Si2  2  0.00000000  0.00000000  0.18907326  1
  Si  Si3  2  0.50000000  0.50000000  0.36027515  1
# generated using pymatgen
data_ID_55
_symmetry_space_group_name_H-M   I4_1md
_cell_length_a   10.37744062
_cell_length_b   10.37744062
_cell_length_c   7.44639791
_cell_angle_alpha   90.00000000
_cell_angle_beta   90.00000000
_cell_angle_gamma   90.00000000
_symmetry_Int_Tables_number   109
_chemical_formula_structural   Si
_cell_volume   801.91207596
_cell_formula_units_Z   32
loop_
 _symmetry_equiv_pos_site_id
 _symmetry_equiv_pos_as_xyz
  1  'x, y, z'
  2  '-y, x+1/2, z+1/4'
  3  '-x+1/2, -y+1/2, z+1/2'
  4  'y+1/2, -x, z+3/4'
  5  '-x, y, z'
  6  'y, x+1/2, z+1/4'
  7  'x+1/2, -y+1/2, z+1/2'
  8  '-y+1/2, -x, z+3/4'
  9  'x+1/2, y+1/2, z+1/2'
  10  '-y+1/2, x, z+3/4'
  11  '-x, -y, z'
  12  'y, -x+1/2, z+1/4'
  13  '-x+1/2, y+1/2, z+1/2'
  14  'y+1/2, x, z+3/4'
  15  'x, -y, z'
  16  '-y, -x+1/2, z+1/4'
loop_
 _atom_site_type_symbol
 _atom_site_label
 _atom_site_symmetry_multiplicity
 _atom_site_fract_x
 _atom_site_fract_y
 _atom_site_fract_z
 _atom_site_occupancy
  Si  Si0  16  0.08741342  0.17588814  0.34255948  1
  Si  Si1  16  0.09062878  0.22332464  0.17234485  1
# generated using pymatgen
data_ID_56
_symmetry_space_group_name_H-M   P3
_cell_length_a   10.78775782
_cell_length_b   10.78775782
_cell_length_c   2.69351645
_cell_angle_alpha   90.00000000
_cell_angle_beta   90.00000000
_cell_angle_gamma   120.00000000
_symmetry_Int_Tables_number   143
_chemical_formula_structural   Si
_cell_volume   271.46424797
_cell_formula_units_Z   16
loop_
 _symmetry_equiv_pos_site_id
 _symmetry_equiv_pos_as_xyz
  1  'x, y, z'
  2  '-y, x-y, z'
  3  '-x+y, -x, z'
loop_
 _atom_site_type_symbol
 _atom_site_label
 _atom_site_symmetry_multiplicity
 _atom_site_fract_x
 _atom_site_fract_y
 _atom_site_fract_z
 _atom_site_occupancy
  Si  Si0  3  0.00212326  0.59464143  0.45906614  1
  Si  Si1  3  0.20684501  0.04525001  0.77668127  1
  Si  Si2  3  0.47196322  0.00081647  0.42844439  1
  Si  Si3  3  0.50084961  0.22549509  0.08585709  1
  Si  Si4  1  0.00000000  0.00000000  0.32906581  1
  Si  Si5  1  0.33333333  0.66666667  0.66149651  1
  Si  Si6  1  0.66666667  0.33333333  0.39098693  1
  Si  Si7  1  0.66666667  0.33333333  0.83671266  1
# generated using pymatgen
data_ID_57
_symmetry_space_group_name_H-M   P6_3/mmc
_cell_length_a   6.48806484
_cell_length_b   6.48806484
_cell_length_c   13.34917116
_cell_angle_alpha   90.00000000
_cell_angle_beta   90.00000000
_cell_angle_gamma   120.00000000
_symmetry_Int_Tables_number   194
_chemical_formula_structural   Si
_cell_volume   486.64839658
_cell_formula_units_Z   16
loop_
 _symmetry_equiv_pos_site_id
 _symmetry_equiv_pos_as_xyz
  1  'x, y, z'
  2  '-x, -y, -z'
  3  'x-y, x, z+1/2'
  4  '-x+y, -x, -z+1/2'
  5  '-y, x-y, z'
  6  'y, -x+y, -z'
  7  '-x, -y, z+1/2'
  8  'x, y, -z+1/2'
  9  '-x+y, -x, z'
  10  'x-y, x, -z'
  11  'y, -x+y, z+1/2'
  12  '-y, x-y, -z+1/2'
  13  '-y, -x, -z+1/2'
  14  'y, x, z+1/2'
  15  '-x, -x+y, -z'
  16  'x, x-y, z'
  17  '-x+y, y, -z+1/2'
  18  'x-y, -y, z+1/2'
  19  'y, x, -z'
  20  '-y, -x, z'
  21  'x, x-y, -z+1/2'
  22  '-x, -x+y, z+1/2'
  23  'x-y, -y, -z'
  24  '-x+y, y, z'
loop_
 _atom_site_type_symbol
 _atom_site_label
 _atom_site_symmetry_multiplicity
 _atom_site_fract_x
 _atom_site_fract_y
 _atom_site_fract_z
 _atom_site_occupancy
  Si  Si0  6  0.00000000  0.50000000  0.00000000  1
  Si  Si1  6  0.07339670  0.14679340  0.25000000  1
  Si  Si2  2  0.33333333  0.66666667  0.25000000  1
  Si  Si3  2  0.33333333  0.66666667  0.75000000  1
# generated using pymatgen
data_ID_58
_symmetry_space_group_name_H-M   Pmc2_1
_cell_length_a   9.99030117
_cell_length_b   6.32717747
_cell_length_c   4.30038760
_cell_angle_alpha   90.00000000
_cell_angle_beta   90.00000000
_cell_angle_gamma   90.00000000
_symmetry_Int_Tables_number   26
_chemical_formula_structural   Si
_cell_volume   271.82925741
_cell_formula_units_Z   16
loop_
 _symmetry_equiv_pos_site_id
 _symmetry_equiv_pos_as_xyz
  1  'x, y, z'
  2  '-x, -y, z+1/2'
  3  '-x, y, z'
  4  'x, -y, z+1/2'
loop_
 _atom_site_type_symbol
 _atom_site_label
 _atom_site_symmetry_multiplicity
 _atom_site_fract_x
 _atom_site_fract_y
 _atom_site_fract_z
 _atom_site_occupancy
  Si  Si0  4  0.06119789  0.25940634  0.94831645  1
  Si  Si1  4  0.30671816  0.12395530  0.11291378  1
  Si  Si2  2  0.00000000  0.27789248  0.58115695  1
  Si  Si3  2  0.00000000  0.45296240  0.37399933  1
  Si  Si4  2  0.50000000  0.04978578  0.41225551  1
  Si  Si5  2  0.50000000  0.30347815  0.32479708  1
# generated using pymatgen
data_ID_59
_symmetry_space_group_name_H-M   C222_1
_cell_length_a   8.49943370
_cell_length_b   11.36524210
_cell_length_c   8.63311300
_cell_angle_alpha   90.00000000
_cell_angle_beta   90.00000000
_cell_angle_gamma   90.00000000
_symmetry_Int_Tables_number   20
_chemical_formula_structural   Si
_cell_volume   833.94249970
_cell_formula_units_Z   32
loop_
 _symmetry_equiv_pos_site_id
 _symmetry_equiv_pos_as_xyz
  1  'x, y, z'
  2  '-x, -y, z+1/2'
  3  'x, -y, -z'
  4  '-x, y, -z+1/2'
  5  'x+1/2, y+1/2, z'
  6  '-x+1/2, -y+1/2, z+1/2'
  7  'x+1/2, -y+1/2, -z'
  8  '-x+1/2, y+1/2, -z+1/2'
loop_
 _atom_site_type_symbol
 _atom_site_label
 _atom_site_symmetry_multiplicity
 _atom_site_fract_x
 _atom_site_fract_y
 _atom_site_fract_z
 _atom_site_occupancy
  Si  Si0  8  0.15736376  0.29575703  0.21251993  1
  Si  Si1  8  0.18380047  0.49979572  0.71074483  1
  Si  Si2  8  0.21435691  0.41934136  0.38904161  1
  Si  Si3  4  0.00456063  0.50000000  0.50000000  1
  Si  Si4  4  0.20595662  0.50000000  0.00000000  1
# generated using pymatgen
data_ID_60
_symmetry_space_group_name_H-M   P-3m1
_cell_length_a   9.65935699
_cell_length_b   9.65935699
_cell_length_c   4.05402605
_cell_angle_alpha   90.00000000
_cell_angle_beta   90.00000000
_cell_angle_gamma   120.00000000
_symmetry_Int_Tables_number   164
_chemical_formula_structural   Si
_cell_volume   327.57715031
_cell_formula_units_Z   16
loop_
 _symmetry_equiv_pos_site_id
 _symmetry_equiv_pos_as_xyz
  1  'x, y, z'
  2  '-x, -y, -z'
  3  '-y, x-y, z'
  4  'y, -x+y, -z'
  5  '-x+y, -x, z'
  6  'x-y, x, -z'
  7  'y, x, -z'
  8  '-y, -x, z'
  9  'x-y, -y, -z'
  10  '-x+y, y, z'
  11  '-x, -x+y, -z'
  12  'x, x-y, z'
loop_
 _atom_site_type_symbol
 _atom_site_label
 _atom_site_symmetry_multiplicity
 _atom_site_fract_x
 _atom_site_fract_y
 _atom_site_fract_z
 _atom_site_occupancy
  Si  Si0  6  0.03994634  0.96005366  0.23150786  1
  Si  Si1  6  0.15545289  0.31090578  0.75113499  1
  Si  Si2  3  0.00000000  0.50000000  0.50000000  1
  Si  Si3  1  0.00000000  0.00000000  0.50000000  1
# generated using pymatgen
data_ID_61
_symmetry_space_group_name_H-M   P4_2/m
_cell_length_a   4.76338011
_cell_length_b   4.76338011
_cell_length_c   14.60433031
_cell_angle_alpha   90.00000000
_cell_angle_beta   90.00000000
_cell_angle_gamma   90.00000000
_symmetry_Int_Tables_number   84
_chemical_formula_structural   Si
_cell_volume   331.36918888
_cell_formula_units_Z   16
loop_
 _symmetry_equiv_pos_site_id
 _symmetry_equiv_pos_as_xyz
  1  'x, y, z'
  2  '-x, -y, -z'
  3  '-y, x, z+1/2'
  4  'y, -x, -z+1/2'
  5  '-x, -y, z'
  6  'x, y, -z'
  7  'y, -x, z+1/2'
  8  '-y, x, -z+1/2'
loop_
 _atom_site_type_symbol
 _atom_site_label
 _atom_site_symmetry_multiplicity
 _atom_site_fract_x
 _atom_site_fract_y
 _atom_site_fract_z
 _atom_site_occupancy
  Si  Si0  8  0.13718486  0.43807511  0.41674306  1
  Si  Si1  4  0.00000000  0.50000000  0.31751481  1
  Si  Si2  4  0.50000000  0.50000000  0.17313404  1
# generated using pymatgen
data_ID_62
_symmetry_space_group_name_H-M   Ibca
_cell_length_a   4.06271468
_cell_length_b   6.45990098
_cell_length_c   8.59737022
_cell_angle_alpha   90.00000000
_cell_angle_beta   90.00000000
_cell_angle_gamma   90.00000000
_symmetry_Int_Tables_number   73
_chemical_formula_structural   Si
_cell_volume   225.63569929
_cell_formula_units_Z   32
loop_
 _symmetry_equiv_pos_site_id
 _symmetry_equiv_pos_as_xyz
  1  'x, y, z'
  2  '-x, -y, -z'
  3  '-x, -y+1/2, z'
  4  'x, y+1/2, -z'
  5  'x, -y, -z+1/2'
  6  '-x, y, z+1/2'
  7  '-x, y+1/2, -z+1/2'
  8  'x, -y+1/2, z+1/2'
  9  'x+1/2, y+1/2, z+1/2'
  10  '-x+1/2, -y+1/2, -z+1/2'
  11  '-x+1/2, -y, z+1/2'
  12  'x+1/2, y, -z+1/2'
  13  'x+1/2, -y+1/2, -z'
  14  '-x+1/2, y+1/2, z'
  15  '-x+1/2, y, -z'
  16  'x+1/2, -y, z'
loop_
 _atom_site_type_symbol
 _atom_site_label
 _atom_site_symmetry_multiplicity
 _atom_site_fract_x
 _atom_site_fract_y
 _atom_site_fract_z
 _atom_site_occupancy
  Si  Si0  16  0.20259503  0.39947962  0.72190908  1
  Si  Si1  8  0.00000000  0.25000000  0.09485226  1
  Si  Si2  8  0.02234794  0.00000000  0.75000000  1
# generated using pymatgen
data_ID_63
_symmetry_space_group_name_H-M   Pnnn
_cell_length_a   4.56499811
_cell_length_b   5.22540027
_cell_length_c   5.58073391
_cell_angle_alpha   90.00000000
_cell_angle_beta   90.00000000
_cell_angle_gamma   90.00000000
_symmetry_Int_Tables_number   48
_chemical_formula_structural   Si
_cell_volume   133.12250504
_cell_formula_units_Z   16
loop_
 _symmetry_equiv_pos_site_id
 _symmetry_equiv_pos_as_xyz
  1  'x, y, z'
  2  '-x, -y, z'
  3  'x, -y, -z'
  4  '-x, y, -z'
  5  '-x+1/2, -y+1/2, -z+1/2'
  6  'x+1/2, y+1/2, -z+1/2'
  7  '-x+1/2, y+1/2, z+1/2'
  8  'x+1/2, -y+1/2, z+1/2'
loop_
 _atom_site_type_symbol
 _atom_site_label
 _atom_site_symmetry_multiplicity
 _atom_site_fract_x
 _atom_site_fract_y
 _atom_site_fract_z
 _atom_site_occupancy
  Si  Si0  8  0.23182554  0.15300859  0.92085571  1
  Si  Si1  4  0.25000000  0.25000000  0.25000000  1
  Si  Si2  2  0.00000000  0.00000000  0.50000000  1
  Si  Si3  2  0.00000000  0.50000000  0.50000000  1
# generated using pymatgen
data_ID_64
_symmetry_space_group_name_H-M   P4/nmm
_cell_length_a   7.17896241
_cell_length_b   7.17896241
_cell_length_c   11.91068232
_cell_angle_alpha   90.00000000
_cell_angle_beta   90.00000000
_cell_angle_gamma   90.00000000
_symmetry_Int_Tables_number   129
_chemical_formula_structural   Si
_cell_volume   613.84680610
_cell_formula_units_Z   16
loop_
 _symmetry_equiv_pos_site_id
 _symmetry_equiv_pos_as_xyz
  1  'x, y, z'
  2  '-y+1/2, x+1/2, z'
  3  '-x, -y, z'
  4  'y+1/2, -x+1/2, z'
  5  'x+1/2, -y+1/2, -z'
  6  '-y, -x, -z'
  7  '-x+1/2, y+1/2, -z'
  8  'y, x, -z'
  9  '-x+1/2, -y+1/2, -z'
  10  'y, -x, -z'
  11  'x+1/2, y+1/2, -z'
  12  '-y, x, -z'
  13  '-x, y, z'
  14  'y+1/2, x+1/2, z'
  15  'x, -y, z'
  16  '-y+1/2, -x+1/2, z'
loop_
 _atom_site_type_symbol
 _atom_site_label
 _atom_site_symmetry_multiplicity
 _atom_site_fract_x
 _atom_site_fract_y
 _atom_site_fract_z
 _atom_site_occupancy
  Si  Si0  4  0.00000000  0.00000000  0.17545701  1
  Si  Si1  4  0.00000000  0.00000000  0.30647162  1
  Si  Si2  4  0.25000000  0.25000000  0.00000000  1
  Si  Si3  2  0.00000000  0.50000000  0.14607695  1
  Si  Si4  2  0.00000000  0.50000000  0.63339314  1
# generated using pymatgen
data_ID_65
_symmetry_space_group_name_H-M   P6_3/mmc
_cell_length_a   8.95442815
_cell_length_b   8.95442815
_cell_length_c   7.17981230
_cell_angle_alpha   90.00000000
_cell_angle_beta   90.00000000
_cell_angle_gamma   120.00000000
_symmetry_Int_Tables_number   194
_chemical_formula_structural   Si
_cell_volume   498.56229968
_cell_formula_units_Z   16
loop_
 _symmetry_equiv_pos_site_id
 _symmetry_equiv_pos_as_xyz
  1  'x, y, z'
  2  '-x, -y, -z'
  3  'x-y, x, z+1/2'
  4  '-x+y, -x, -z+1/2'
  5  '-y, x-y, z'
  6  'y, -x+y, -z'
  7  '-x, -y, z+1/2'
  8  'x, y, -z+1/2'
  9  '-x+y, -x, z'
  10  'x-y, x, -z'
  11  'y, -x+y, z+1/2'
  12  '-y, x-y, -z+1/2'
  13  '-y, -x, -z+1/2'
  14  'y, x, z+1/2'
  15  '-x, -x+y, -z'
  16  'x, x-y, z'
  17  '-x+y, y, -z+1/2'
  18  'x-y, -y, z+1/2'
  19  'y, x, -z'
  20  '-y, -x, z'
  21  'x, x-y, -z+1/2'
  22  '-x, -x+y, z+1/2'
  23  'x-y, -y, -z'
  24  '-x+y, y, z'
loop_
 _atom_site_type_symbol
 _atom_site_label
 _atom_site_symmetry_multiplicity
 _atom_site_fract_x
 _atom_site_fract_y
 _atom_site_fract_z
 _atom_site_occupancy
  Si  Si0  12  0.13680797  0.56840399  0.15981678  1
  Si  Si1  2  0.00000000  0.00000000  0.00000000  1
  Si  Si2  2  0.00000000  0.00000000  0.25000000  1
# generated using pymatgen
data_ID_66
_symmetry_space_group_name_H-M   P4_2bc
_cell_length_a   9.60273253
_cell_length_b   9.60273253
_cell_length_c   5.24554885
_cell_angle_alpha   90.00000000
_cell_angle_beta   90.00000000
_cell_angle_gamma   90.00000000
_symmetry_Int_Tables_number   106
_chemical_formula_structural   Si
_cell_volume   483.70502711
_cell_formula_units_Z   16
loop_
 _symmetry_equiv_pos_site_id
 _symmetry_equiv_pos_as_xyz
  1  'x, y, z'
  2  '-y, x, z+1/2'
  3  '-x, -y, z'
  4  'y, -x, z+1/2'
  5  '-x+1/2, y+1/2, z'
  6  'y+1/2, x+1/2, z+1/2'
  7  'x+1/2, -y+1/2, z'
  8  '-y+1/2, -x+1/2, z+1/2'
loop_
 _atom_site_type_symbol
 _atom_site_label
 _atom_site_symmetry_multiplicity
 _atom_site_fract_x
 _atom_site_fract_y
 _atom_site_fract_z
 _atom_site_occupancy
  Si  Si0  8  0.07435030  0.32760635  0.78547020  1
  Si  Si1  8  0.15070319  0.17082113  0.03711853  1
# generated using pymatgen
data_ID_67
_symmetry_space_group_name_H-M   I2_13
_cell_length_a   10.87593165
_cell_length_b   10.87593165
_cell_length_c   10.87593165
_cell_angle_alpha   90.00000000
_cell_angle_beta   90.00000000
_cell_angle_gamma   90.00000000
_symmetry_Int_Tables_number   199
_chemical_formula_structural   Si
_cell_volume   1286.46924684
_cell_formula_units_Z   32
loop_
 _symmetry_equiv_pos_site_id
 _symmetry_equiv_pos_as_xyz
  1  'x, y, z'
  2  '-x, -y+1/2, z'
  3  'x, -y, -z+1/2'
  4  '-x, y+1/2, -z+1/2'
  5  'z, x, y'
  6  'z, -x, -y+1/2'
  7  '-z+1/2, x, -y'
  8  '-z+1/2, -x, y+1/2'
  9  'y, z, x'
  10  '-y+1/2, z, -x'
  11  '-y, -z+1/2, x'
  12  'y+1/2, -z+1/2, -x'
  13  'x+1/2, y+1/2, z+1/2'
  14  '-x+1/2, -y, z+1/2'
  15  'x+1/2, -y+1/2, -z'
  16  '-x+1/2, y, -z'
  17  'z+1/2, x+1/2, y+1/2'
  18  'z+1/2, -x+1/2, -y'
  19  '-z, x+1/2, -y+1/2'
  20  '-z, -x+1/2, y'
  21  'y+1/2, z+1/2, x+1/2'
  22  '-y, z+1/2, -x+1/2'
  23  '-y+1/2, -z, x+1/2'
  24  'y, -z, -x+1/2'
loop_
 _atom_site_type_symbol
 _atom_site_label
 _atom_site_symmetry_multiplicity
 _atom_site_fract_x
 _atom_site_fract_y
 _atom_site_fract_z
 _atom_site_occupancy
  Si  Si0  24  0.06624492  0.36951755  0.13294784  1
  Si  Si1  8  0.01610033  0.01610033  0.01610033  1
# generated using pymatgen
data_ID_68
_symmetry_space_group_name_H-M   I4_122
_cell_length_a   5.50885106
_cell_length_b   5.50885106
_cell_length_c   7.23032484
_cell_angle_alpha   90.00000000
_cell_angle_beta   90.00000000
_cell_angle_gamma   90.00000000
_symmetry_Int_Tables_number   98
_chemical_formula_structural   Si
_cell_volume   219.42184914
_cell_formula_units_Z   32
loop_
 _symmetry_equiv_pos_site_id
 _symmetry_equiv_pos_as_xyz
  1  'x, y, z'
  2  '-y, x+1/2, z+1/4'
  3  '-x+1/2, -y+1/2, z+1/2'
  4  'y+1/2, -x, z+3/4'
  5  'x, -y+1/2, -z+1/4'
  6  '-y, -x, -z'
  7  '-x+1/2, y, -z+3/4'
  8  'y+1/2, x+1/2, -z+1/2'
  9  'x+1/2, y+1/2, z+1/2'
  10  '-y+1/2, x, z+3/4'
  11  '-x, -y, z'
  12  'y, -x+1/2, z+1/4'
  13  'x+1/2, -y, -z+3/4'
  14  '-y+1/2, -x+1/2, -z+1/2'
  15  '-x, y+1/2, -z+1/4'
  16  'y, x, -z'
loop_
 _atom_site_type_symbol
 _atom_site_label
 _atom_site_symmetry_multiplicity
 _atom_site_fract_x
 _atom_site_fract_y
 _atom_site_fract_z
 _atom_site_occupancy
  Si  Si0  8  0.00000000  0.00000000  0.14267828  1
  Si  Si1  8  0.00000000  0.00000000  0.35573171  1
  Si  Si2  8  0.03119180  0.75000000  0.12500000  1
  Si  Si3  8  0.22455955  0.25000000  0.62500000  1
# generated using pymatgen
data_ID_69
_symmetry_space_group_name_H-M   Pbcn
_cell_length_a   6.40540957
_cell_length_b   8.53131389
_cell_length_c   6.95942053
_cell_angle_alpha   90.00000000
_cell_angle_beta   90.00000000
_cell_angle_gamma   90.00000000
_symmetry_Int_Tables_number   60
_chemical_formula_structural   Si
_cell_volume   380.30838912
_cell_formula_units_Z   16
loop_
 _symmetry_equiv_pos_site_id
 _symmetry_equiv_pos_as_xyz
  1  'x, y, z'
  2  '-x, -y, -z'
  3  '-x+1/2, -y+1/2, z+1/2'
  4  'x+1/2, y+1/2, -z+1/2'
  5  'x+1/2, -y+1/2, -z'
  6  '-x+1/2, y+1/2, z'
  7  '-x, y, -z+1/2'
  8  'x, -y, z+1/2'
loop_
 _atom_site_type_symbol
 _atom_site_label
 _atom_site_symmetry_multiplicity
 _atom_site_fract_x
 _atom_site_fract_y
 _atom_site_fract_z
 _atom_site_occupancy
  Si  Si0  8  0.05212860  0.07468669  0.32633487  1
  Si  Si1  4  0.00000000  0.34820167  0.25000000  1
  Si  Si2  4  0.00000000  0.43131187  0.75000000  1
# generated using pymatgen
data_ID_70
_symmetry_space_group_name_H-M   Cmmm
_cell_length_a   5.28680303
_cell_length_b   6.90435471
_cell_length_c   13.39971284
_cell_angle_alpha   90.00000000
_cell_angle_beta   90.00000000
_cell_angle_gamma   90.00000000
_symmetry_Int_Tables_number   65
_chemical_formula_structural   Si
_cell_volume   489.11582749
_cell_formula_units_Z   16
loop_
 _symmetry_equiv_pos_site_id
 _symmetry_equiv_pos_as_xyz
  1  'x, y, z'
  2  '-x, -y, -z'
  3  '-x, -y, z'
  4  'x, y, -z'
  5  'x, -y, -z'
  6  '-x, y, z'
  7  '-x, y, -z'
  8  'x, -y, z'
  9  'x+1/2, y+1/2, z'
  10  '-x+1/2, -y+1/2, -z'
  11  '-x+1/2, -y+1/2, z'
  12  'x+1/2, y+1/2, -z'
  13  'x+1/2, -y+1/2, -z'
  14  '-x+1/2, y+1/2, z'
  15  '-x+1/2, y+1/2, -z'
  16  'x+1/2, -y+1/2, z'
loop_
 _atom_site_type_symbol
 _atom_site_label
 _atom_site_symmetry_multiplicity
 _atom_site_fract_x
 _atom_site_fract_y
 _atom_site_fract_z
 _atom_site_occupancy
  Si  Si0  4  0.00000000  0.10854303  0.00000000  1
  Si  Si1  4  0.12833524  0.00000000  0.50000000  1
  Si  Si2  4  0.25000000  0.25000000  0.50000000  1
  Si  Si3  2  0.00000000  0.50000000  0.00000000  1
  Si  Si4  2  0.00000000  0.50000000  0.50000000  1
# generated using pymatgen
data_ID_71
_symmetry_space_group_name_H-M   Pccm
_cell_length_a   4.01748104
_cell_length_b   7.87980632
_cell_length_c   7.80119627
_cell_angle_alpha   90.00000000
_cell_angle_beta   90.00000000
_cell_angle_gamma   90.00000000
_symmetry_Int_Tables_number   49
_chemical_formula_structural   Si
_cell_volume   246.96225563
_cell_formula_units_Z   16
loop_
 _symmetry_equiv_pos_site_id
 _symmetry_equiv_pos_as_xyz
  1  'x, y, z'
  2  '-x, -y, -z'
  3  '-x, -y, z'
  4  'x, y, -z'
  5  'x, -y, -z+1/2'
  6  '-x, y, z+1/2'
  7  '-x, y, -z+1/2'
  8  'x, -y, z+1/2'
loop_
 _atom_site_type_symbol
 _atom_site_label
 _atom_site_symmetry_multiplicity
 _atom_site_fract_x
 _atom_site_fract_y
 _atom_site_fract_z
 _atom_site_occupancy
  Si  Si0  8  0.15202777  0.34742591  0.16899885  1
  Si  Si1  2  0.00000000  0.00000000  0.00000000  1
  Si  Si2  2  0.00000000  0.00000000  0.25000000  1
  Si  Si3  2  0.00000000  0.50000000  0.25000000  1
  Si  Si4  2  0.50000000  0.00000000  0.00000000  1
# generated using pymatgen
data_ID_72
_symmetry_space_group_name_H-M   I-4
_cell_length_a   5.90605144
_cell_length_b   5.90605144
_cell_length_c   11.78472946
_cell_angle_alpha   90.00000000
_cell_angle_beta   90.00000000
_cell_angle_gamma   90.00000000
_symmetry_Int_Tables_number   82
_chemical_formula_structural   Si
_cell_volume   411.06837659
_cell_formula_units_Z   32
loop_
 _symmetry_equiv_pos_site_id
 _symmetry_equiv_pos_as_xyz
  1  'x, y, z'
  2  'y, -x, -z'
  3  '-x, -y, z'
  4  '-y, x, -z'
  5  'x+1/2, y+1/2, z+1/2'
  6  'y+1/2, -x+1/2, -z+1/2'
  7  '-x+1/2, -y+1/2, z+1/2'
  8  '-y+1/2, x+1/2, -z+1/2'
loop_
 _atom_site_type_symbol
 _atom_site_label
 _atom_site_symmetry_multiplicity
 _atom_site_fract_x
 _atom_site_fract_y
 _atom_site_fract_z
 _atom_site_occupancy
  Si  Si0  8  0.03993592  0.65684381  0.33492368  1
  Si  Si1  8  0.06644869  0.23899326  0.56038656  1
  Si  Si2  8  0.08942778  0.33837117  0.93849973  1
  Si  Si3  8  0.22018815  0.23629415  0.83390541  1
# generated using pymatgen
data_ID_73
_symmetry_space_group_name_H-M   Cccm
_cell_length_a   8.59753164
_cell_length_b   9.44649146
_cell_length_c   11.63669061
_cell_angle_alpha   90.00000000
_cell_angle_beta   90.00000000
_cell_angle_gamma   90.00000000
_symmetry_Int_Tables_number   66
_chemical_formula_structural   Si
_cell_volume   945.09138955
_cell_formula_units_Z   32
loop_
 _symmetry_equiv_pos_site_id
 _symmetry_equiv_pos_as_xyz
  1  'x, y, z'
  2  '-x, -y, -z'
  3  '-x, -y, z'
  4  'x, y, -z'
  5  'x, -y, -z+1/2'
  6  '-x, y, z+1/2'
  7  '-x, y, -z+1/2'
  8  'x, -y, z+1/2'
  9  'x+1/2, y+1/2, z'
  10  '-x+1/2, -y+1/2, -z'
  11  '-x+1/2, -y+1/2, z'
  12  'x+1/2, y+1/2, -z'
  13  'x+1/2, -y+1/2, -z+1/2'
  14  '-x+1/2, y+1/2, z+1/2'
  15  '-x+1/2, y+1/2, -z+1/2'
  16  'x+1/2, -y+1/2, z+1/2'
loop_
 _atom_site_type_symbol
 _atom_site_label
 _atom_site_symmetry_multiplicity
 _atom_site_fract_x
 _atom_site_fract_y
 _atom_site_fract_z
 _atom_site_occupancy
  Si  Si0  16  0.12840206  0.28087422  0.23110056  1
  Si  Si1  4  0.00000000  0.00000000  0.00000000  1
  Si  Si2  4  0.00000000  0.50000000  0.25000000  1
  Si  Si3  4  0.25000000  0.25000000  0.00000000  1
  Si  Si4  4  0.25000000  0.25000000  0.50000000  1
# generated using pymatgen
data_ID_74
_symmetry_space_group_name_H-M   Immm
_cell_length_a   5.91173999
_cell_length_b   6.24289219
_cell_length_c   6.63815432
_cell_angle_alpha   90.00000000
_cell_angle_beta   90.00000000
_cell_angle_gamma   90.00000000
_symmetry_Int_Tables_number   71
_chemical_formula_structural   Si
_cell_volume   244.99008273
_cell_formula_units_Z   32
loop_
 _symmetry_equiv_pos_site_id
 _symmetry_equiv_pos_as_xyz
  1  'x, y, z'
  2  '-x, -y, -z'
  3  '-x, -y, z'
  4  'x, y, -z'
  5  'x, -y, -z'
  6  '-x, y, z'
  7  '-x, y, -z'
  8  'x, -y, z'
  9  'x+1/2, y+1/2, z+1/2'
  10  '-x+1/2, -y+1/2, -z+1/2'
  11  '-x+1/2, -y+1/2, z+1/2'
  12  'x+1/2, y+1/2, -z+1/2'
  13  'x+1/2, -y+1/2, -z+1/2'
  14  '-x+1/2, y+1/2, z+1/2'
  15  '-x+1/2, y+1/2, -z+1/2'
  16  'x+1/2, -y+1/2, z+1/2'
loop_
 _atom_site_type_symbol
 _atom_site_label
 _atom_site_symmetry_multiplicity
 _atom_site_fract_x
 _atom_site_fract_y
 _atom_site_fract_z
 _atom_site_occupancy
  Si  Si0  16  0.16467974  0.09668070  0.83919280  1
  Si  Si1  8  0.10461005  0.50000000  0.38181364  1
  Si  Si2  4  0.00000000  0.00000000  0.39200758  1
  Si  Si3  2  0.00000000  0.00000000  0.00000000  1
  Si  Si4  2  0.00000000  0.50000000  0.00000000  1
# generated using pymatgen
data_ID_75
_symmetry_space_group_name_H-M   P-62m
_cell_length_a   4.12647596
_cell_length_b   4.12647596
_cell_length_c   13.17992564
_cell_angle_alpha   90.00000000
_cell_angle_beta   90.00000000
_cell_angle_gamma   120.00000000
_symmetry_Int_Tables_number   189
_chemical_formula_structural   Si
_cell_volume   194.35791478
_cell_formula_units_Z   16
loop_
 _symmetry_equiv_pos_site_id
 _symmetry_equiv_pos_as_xyz
  1  'x, y, z'
  2  '-x+y, -x, -z'
  3  '-y, x-y, z'
  4  'x, y, -z'
  5  '-x+y, -x, z'
  6  '-y, x-y, -z'
  7  'y, x, z'
  8  '-x, -x+y, -z'
  9  'x-y, -y, z'
  10  'y, x, -z'
  11  '-x, -x+y, z'
  12  'x-y, -y, -z'
loop_
 _atom_site_type_symbol
 _atom_site_label
 _atom_site_symmetry_multiplicity
 _atom_site_fract_x
 _atom_site_fract_y
 _atom_site_fract_z
 _atom_site_occupancy
  Si  Si0  4  0.33333333  0.66666667  0.30155616  1
  Si  Si1  3  0.00000000  0.59315241  0.00000000  1
  Si  Si2  3  0.00000000  0.75338321  0.50000000  1
  Si  Si3  2  0.00000000  0.00000000  0.11709728  1
  Si  Si4  2  0.00000000  0.00000000  0.31126629  1
  Si  Si5  2  0.33333333  0.66666667  0.00000000  1
# generated using pymatgen
data_ID_76
_symmetry_space_group_name_H-M   Ima2
_cell_length_a   9.49053808
_cell_length_b   15.07924651
_cell_length_c   4.84707500
_cell_angle_alpha   90.00000000
_cell_angle_beta   90.00000000
_cell_angle_gamma   90.00000000
_symmetry_Int_Tables_number   46
_chemical_formula_structural   Si
_cell_volume   693.66569484
_cell_formula_units_Z   32
loop_
 _symmetry_equiv_pos_site_id
 _symmetry_equiv_pos_as_xyz
  1  'x, y, z'
  2  '-x, -y, z'
  3  '-x+1/2, y, z'
  4  'x+1/2, -y, z'
  5  'x+1/2, y+1/2, z+1/2'
  6  '-x+1/2, -y+1/2, z+1/2'
  7  '-x, y+1/2, z+1/2'
  8  'x, -y+1/2, z+1/2'
loop_
 _atom_site_type_symbol
 _atom_site_label
 _atom_site_symmetry_multiplicity
 _atom_site_fract_x
 _atom_site_fract_y
 _atom_site_fract_z
 _atom_site_occupancy
  Si  Si0  8  0.05395044  0.61879302  0.48992040  1
  Si  Si1  8  0.12570162  0.56120610  0.63710518  1
  Si  Si2  8  0.12757433  0.23686398  0.59637792  1
  Si  Si3  4  0.25000000  0.10358049  0.91977658  1
  Si  Si4  4  0.25000000  0.67717309  0.01217981  1
# generated using pymatgen
data_ID_77
_symmetry_space_group_name_H-M   R-3c
_cell_length_a   6.03989799
_cell_length_b   6.03989799
_cell_length_c   11.07159154
_cell_angle_alpha   90.00000000
_cell_angle_beta   90.00000000
_cell_angle_gamma   120.00000000
_symmetry_Int_Tables_number   167
_chemical_formula_structural   Si
_cell_volume   349.78396341
_cell_formula_units_Z   48
loop_
 _symmetry_equiv_pos_site_id
 _symmetry_equiv_pos_as_xyz
  1  'x, y, z'
  2  '-x, -y, -z'
  3  '-y, x-y, z'
  4  'y, -x+y, -z'
  5  '-x+y, -x, z'
  6  'x-y, x, -z'
  7  'y, x, -z+1/2'
  8  '-y, -x, z+1/2'
  9  'x-y, -y, -z+1/2'
  10  '-x+y, y, z+1/2'
  11  '-x, -x+y, -z+1/2'
  12  'x, x-y, z+1/2'
  13  'x+2/3, y+1/3, z+1/3'
  14  '-x+2/3, -y+1/3, -z+1/3'
  15  '-y+2/3, x-y+1/3, z+1/3'
  16  'y+2/3, -x+y+1/3, -z+1/3'
  17  '-x+y+2/3, -x+1/3, z+1/3'
  18  'x-y+2/3, x+1/3, -z+1/3'
  19  'y+2/3, x+1/3, -z+5/6'
  20  '-y+2/3, -x+1/3, z+5/6'
  21  'x-y+2/3, -y+1/3, -z+5/6'
  22  '-x+y+2/3, y+1/3, z+5/6'
  23  '-x+2/3, -x+y+1/3, -z+5/6'
  24  'x+2/3, x-y+1/3, z+5/6'
  25  'x+1/3, y+2/3, z+2/3'
  26  '-x+1/3, -y+2/3, -z+2/3'
  27  '-y+1/3, x-y+2/3, z+2/3'
  28  'y+1/3, -x+y+2/3, -z+2/3'
  29  '-x+y+1/3, -x+2/3, z+2/3'
  30  'x-y+1/3, x+2/3, -z+2/3'
  31  'y+1/3, x+2/3, -z+1/6'
  32  '-y+1/3, -x+2/3, z+1/6'
  33  'x-y+1/3, -y+2/3, -z+1/6'
  34  '-x+y+1/3, y+2/3, z+1/6'
  35  '-x+1/3, -x+y+2/3, -z+1/6'
  36  'x+1/3, x-y+2/3, z+1/6'
loop_
 _atom_site_type_symbol
 _atom_site_label
 _atom_site_symmetry_multiplicity
 _atom_site_fract_x
 _atom_site_fract_y
 _atom_site_fract_z
 _atom_site_occupancy
  Si  Si0  18  0.00000000  0.33646084  0.75000000  1
  Si  Si1  18  0.00000000  0.50000000  0.00000000  1
  Si  Si2  6  0.00000000  0.00000000  0.00000000  1
  Si  Si3  6  0.00000000  0.00000000  0.25000000  1
# generated using pymatgen
data_ID_78
_symmetry_space_group_name_H-M   Pna2_1
_cell_length_a   6.15146655
_cell_length_b   6.35597189
_cell_length_c   6.18358866
_cell_angle_alpha   90.00000000
_cell_angle_beta   90.00000000
_cell_angle_gamma   90.00000000
_symmetry_Int_Tables_number   33
_chemical_formula_structural   Si
_cell_volume   241.76934108
_cell_formula_units_Z   16
loop_
 _symmetry_equiv_pos_site_id
 _symmetry_equiv_pos_as_xyz
  1  'x, y, z'
  2  '-x, -y, z+1/2'
  3  '-x+1/2, y+1/2, z+1/2'
  4  'x+1/2, -y+1/2, z'
loop_
 _atom_site_type_symbol
 _atom_site_label
 _atom_site_symmetry_multiplicity
 _atom_site_fract_x
 _atom_site_fract_y
 _atom_site_fract_z
 _atom_site_occupancy
  Si  Si0  4  0.01358708  0.06851655  0.57177079  1
  Si  Si1  4  0.10583471  0.29978170  0.02024756  1
  Si  Si2  4  0.17843809  0.98297080  0.60213992  1
  Si  Si3  4  0.18297023  0.88773089  0.12538197  1
# generated using pymatgen
data_ID_79
_symmetry_space_group_name_H-M   P4_2bc
_cell_length_a   7.17910533
_cell_length_b   7.17910533
_cell_length_c   6.56196021
_cell_angle_alpha   90.00000000
_cell_angle_beta   90.00000000
_cell_angle_gamma   90.00000000
_symmetry_Int_Tables_number   106
_chemical_formula_structural   Si
_cell_volume   338.20049835
_cell_formula_units_Z   16
loop_
 _symmetry_equiv_pos_site_id
 _symmetry_equiv_pos_as_xyz
  1  'x, y, z'
  2  '-y, x, z+1/2'
  3  '-x, -y, z'
  4  'y, -x, z+1/2'
  5  '-x+1/2, y+1/2, z'
  6  'y+1/2, x+1/2, z+1/2'
  7  'x+1/2, -y+1/2, z'
  8  '-y+1/2, -x+1/2, z+1/2'
loop_
 _atom_site_type_symbol
 _atom_site_label
 _atom_site_symmetry_multiplicity
 _atom_site_fract_x
 _atom_site_fract_y
 _atom_site_fract_z
 _atom_site_occupancy
  Si  Si0  8  0.08881565  0.63043976  0.14218282  1
  Si  Si1  4  0.00000000  0.00000000  0.29953948  1
  Si  Si2  4  0.00000000  0.50000000  0.20911773  1
# generated using pymatgen
data_ID_80
_symmetry_space_group_name_H-M   Pmmm
_cell_length_a   7.01232233
_cell_length_b   7.05513682
_cell_length_c   8.63347946
_cell_angle_alpha   90.00000000
_cell_angle_beta   90.00000000
_cell_angle_gamma   90.00000000
_symmetry_Int_Tables_number   47
_chemical_formula_structural   Si
_cell_volume   427.12320985
_cell_formula_units_Z   16
loop_
 _symmetry_equiv_pos_site_id
 _symmetry_equiv_pos_as_xyz
  1  'x, y, z'
  2  '-x, -y, -z'
  3  '-x, -y, z'
  4  'x, y, -z'
  5  'x, -y, -z'
  6  '-x, y, z'
  7  '-x, y, -z'
  8  'x, -y, z'
loop_
 _atom_site_type_symbol
 _atom_site_label
 _atom_site_symmetry_multiplicity
 _atom_site_fract_x
 _atom_site_fract_y
 _atom_site_fract_z
 _atom_site_occupancy
  Si  Si0  8  0.22166037  0.10310715  0.27965282  1
  Si  Si1  4  0.00000000  0.15194776  0.35505393  1
  Si  Si2  2  0.50000000  0.00000000  0.12449366  1
  Si  Si3  1  0.00000000  0.50000000  0.50000000  1
  Si  Si4  1  0.50000000  0.00000000  0.50000000  1
# generated using pymatgen
data_ID_81
_symmetry_space_group_name_H-M   P6_322
_cell_length_a   9.15677042
_cell_length_b   9.15677042
_cell_length_c   6.70635519
_cell_angle_alpha   90.00000000
_cell_angle_beta   90.00000000
_cell_angle_gamma   120.00000000
_symmetry_Int_Tables_number   182
_chemical_formula_structural   Si
_cell_volume   486.96958179
_cell_formula_units_Z   16
loop_
 _symmetry_equiv_pos_site_id
 _symmetry_equiv_pos_as_xyz
  1  'x, y, z'
  2  'x-y, x, z+1/2'
  3  '-y, x-y, z'
  4  '-x, -y, z+1/2'
  5  '-x+y, -x, z'
  6  'y, -x+y, z+1/2'
  7  '-y, -x, -z+1/2'
  8  '-x, -x+y, -z'
  9  '-x+y, y, -z+1/2'
  10  'y, x, -z'
  11  'x, x-y, -z+1/2'
  12  'x-y, -y, -z'
loop_
 _atom_site_type_symbol
 _atom_site_label
 _atom_site_symmetry_multiplicity
 _atom_site_fract_x
 _atom_site_fract_y
 _atom_site_fract_z
 _atom_site_occupancy
  Si  Si0  12  0.16618702  0.44272045  0.68759020  1
  Si  Si1  2  0.00000000  0.00000000  0.25000000  1
  Si  Si2  2  0.33333333  0.66666667  0.75000000  1
# generated using pymatgen
data_ID_82
_symmetry_space_group_name_H-M   Cmmm
_cell_length_a   6.72610395
_cell_length_b   9.36432686
_cell_length_c   7.90128116
_cell_angle_alpha   90.00000000
_cell_angle_beta   90.00000000
_cell_angle_gamma   90.00000000
_symmetry_Int_Tables_number   65
_chemical_formula_structural   Si
_cell_volume   497.66563795
_cell_formula_units_Z   32
loop_
 _symmetry_equiv_pos_site_id
 _symmetry_equiv_pos_as_xyz
  1  'x, y, z'
  2  '-x, -y, -z'
  3  '-x, -y, z'
  4  'x, y, -z'
  5  'x, -y, -z'
  6  '-x, y, z'
  7  '-x, y, -z'
  8  'x, -y, z'
  9  'x+1/2, y+1/2, z'
  10  '-x+1/2, -y+1/2, -z'
  11  '-x+1/2, -y+1/2, z'
  12  'x+1/2, y+1/2, -z'
  13  'x+1/2, -y+1/2, -z'
  14  '-x+1/2, y+1/2, z'
  15  '-x+1/2, y+1/2, -z'
  16  'x+1/2, -y+1/2, z'
loop_
 _atom_site_type_symbol
 _atom_site_label
 _atom_site_symmetry_multiplicity
 _atom_site_fract_x
 _atom_site_fract_y
 _atom_site_fract_z
 _atom_site_occupancy
  Si  Si0  8  0.09956737  0.27200287  0.00000000  1
  Si  Si1  8  0.10627239  0.13836021  0.50000000  1
  Si  Si2  4  0.00000000  0.00000000  0.40122948  1
  Si  Si3  4  0.00000000  0.32388706  0.50000000  1
  Si  Si4  4  0.00000000  0.37835211  0.00000000  1
  Si  Si5  2  0.00000000  0.00000000  0.00000000  1
  Si  Si6  2  0.00000000  0.50000000  0.00000000  1
# generated using pymatgen
data_ID_83
_symmetry_space_group_name_H-M   P4mm
_cell_length_a   12.38916729
_cell_length_b   12.38916729
_cell_length_c   3.84447878
_cell_angle_alpha   90.00000000
_cell_angle_beta   90.00000000
_cell_angle_gamma   90.00000000
_symmetry_Int_Tables_number   99
_chemical_formula_structural   Si
_cell_volume   590.09468438
_cell_formula_units_Z   16
loop_
 _symmetry_equiv_pos_site_id
 _symmetry_equiv_pos_as_xyz
  1  'x, y, z'
  2  '-y, x, z'
  3  '-x, -y, z'
  4  'y, -x, z'
  5  '-x, y, z'
  6  'y, x, z'
  7  'x, -y, z'
  8  '-y, -x, z'
loop_
 _atom_site_type_symbol
 _atom_site_label
 _atom_site_symmetry_multiplicity
 _atom_site_fract_x
 _atom_site_fract_y
 _atom_site_fract_z
 _atom_site_occupancy
  Si  Si0  8  0.05713859  0.34173681  0.66224332  1
  Si  Si1  4  0.00000000  0.20606952  0.96323092  1
  Si  Si2  2  0.00000000  0.50000000  0.28843078  1
  Si  Si3  1  0.00000000  0.00000000  0.84910100  1
  Si  Si4  1  0.50000000  0.50000000  0.44886129  1
# generated using pymatgen
data_ID_84
_symmetry_space_group_name_H-M   P4_2/mnm
_cell_length_a   10.48654236
_cell_length_b   10.48654236
_cell_length_c   5.10202530
_cell_angle_alpha   90.00000000
_cell_angle_beta   90.00000000
_cell_angle_gamma   90.00000000
_symmetry_Int_Tables_number   136
_chemical_formula_structural   Si
_cell_volume   561.05732786
_cell_formula_units_Z   16
loop_
 _symmetry_equiv_pos_site_id
 _symmetry_equiv_pos_as_xyz
  1  'x, y, z'
  2  '-x, -y, -z'
  3  '-y+1/2, x+1/2, z+1/2'
  4  'y+1/2, -x+1/2, -z+1/2'
  5  '-x, -y, z'
  6  'x, y, -z'
  7  'y+1/2, -x+1/2, z+1/2'
  8  '-y+1/2, x+1/2, -z+1/2'
  9  'x+1/2, -y+1/2, -z+1/2'
  10  '-x+1/2, y+1/2, z+1/2'
  11  '-y, -x, -z'
  12  'y, x, z'
  13  '-x+1/2, y+1/2, -z+1/2'
  14  'x+1/2, -y+1/2, z+1/2'
  15  'y, x, -z'
  16  '-y, -x, z'
loop_
 _atom_site_type_symbol
 _atom_site_label
 _atom_site_symmetry_multiplicity
 _atom_site_fract_x
 _atom_site_fract_y
 _atom_site_fract_z
 _atom_site_occupancy
  Si  Si0  16  0.05843228  0.63448804  0.17562039  1
# generated using pymatgen
data_ID_85
_symmetry_space_group_name_H-M   C222
_cell_length_a   4.46400074
_cell_length_b   6.64740993
_cell_length_c   10.06165140
_cell_angle_alpha   90.00000000
_cell_angle_beta   90.00000000
_cell_angle_gamma   90.00000000
_symmetry_Int_Tables_number   21
_chemical_formula_structural   Si
_cell_volume   298.56987469
_cell_formula_units_Z   32
loop_
 _symmetry_equiv_pos_site_id
 _symmetry_equiv_pos_as_xyz
  1  'x, y, z'
  2  '-x, -y, z'
  3  'x, -y, -z'
  4  '-x, y, -z'
  5  'x+1/2, y+1/2, z'
  6  '-x+1/2, -y+1/2, z'
  7  'x+1/2, -y+1/2, -z'
  8  '-x+1/2, y+1/2, -z'
loop_
 _atom_site_type_symbol
 _atom_site_label
 _atom_site_symmetry_multiplicity
 _atom_site_fract_x
 _atom_site_fract_y
 _atom_site_fract_z
 _atom_site_occupancy
  Si  Si0  8  0.17265886  0.36249078  0.31363649  1
  Si  Si1  8  0.20355320  0.03444596  0.77522536  1
  Si  Si2  4  0.00000000  0.00000000  0.31525522  1
  Si  Si3  4  0.00000000  0.18785601  0.00000000  1
  Si  Si4  4  0.00000000  0.50000000  0.11446918  1
  Si  Si5  2  0.00000000  0.00000000  0.00000000  1
  Si  Si6  2  0.00000000  0.50000000  0.00000000  1
# generated using pymatgen
data_ID_86
_symmetry_space_group_name_H-M   Cmc2_1
_cell_length_a   6.71912045
_cell_length_b   22.55586571
_cell_length_c   6.58111972
_cell_angle_alpha   90.00000000
_cell_angle_beta   90.00000000
_cell_angle_gamma   90.00000000
_symmetry_Int_Tables_number   36
_chemical_formula_structural   Si
_cell_volume   997.40540635
_cell_formula_units_Z   32
loop_
 _symmetry_equiv_pos_site_id
 _symmetry_equiv_pos_as_xyz
  1  'x, y, z'
  2  '-x, -y, z+1/2'
  3  '-x, y, z'
  4  'x, -y, z+1/2'
  5  'x+1/2, y+1/2, z'
  6  '-x+1/2, -y+1/2, z+1/2'
  7  '-x+1/2, y+1/2, z'
  8  'x+1/2, -y+1/2, z+1/2'
loop_
 _atom_site_type_symbol
 _atom_site_label
 _atom_site_symmetry_multiplicity
 _atom_site_fract_x
 _atom_site_fract_y
 _atom_site_fract_z
 _atom_site_occupancy
  Si  Si0  8  0.11014390  0.02187603  0.44489374  1
  Si  Si1  8  0.11294802  0.23644341  0.69300991  1
  Si  Si2  8  0.18632063  0.32464443  0.09848318  1
  Si  Si3  4  0.00000000  0.28974834  0.24328928  1
  Si  Si4  4  0.00000000  0.36299366  0.88515538  1
# generated using pymatgen
data_ID_87
_symmetry_space_group_name_H-M   P2_1/c
_cell_length_a   6.75739613
_cell_length_b   4.27408438
_cell_length_c   5.23707737
_cell_angle_alpha   90.00000000
_cell_angle_beta   105.44689553
_cell_angle_gamma   90.00000000
_symmetry_Int_Tables_number   14
_chemical_formula_structural   Si
_cell_volume   145.79190336
_cell_formula_units_Z   16
loop_
 _symmetry_equiv_pos_site_id
 _symmetry_equiv_pos_as_xyz
  1  'x, y, z'
  2  '-x, -y, -z'
  3  '-x, y+1/2, -z+1/2'
  4  'x, -y+1/2, z+1/2'
loop_
 _atom_site_type_symbol
 _atom_site_label
 _atom_site_symmetry_multiplicity
 _atom_site_fract_x
 _atom_site_fract_y
 _atom_site_fract_z
 _atom_site_occupancy
  Si  Si0  4  0.02133564  0.69362860  0.74792620  1
  Si  Si1  4  0.27612747  0.00603925  0.59822933  1
  Si  Si2  4  0.42945080  0.58423769  0.48557597  1
  Si  Si3  2  0.00000000  0.00000000  0.00000000  1
  Si  Si4  2  0.00000000  0.00000000  0.50000000  1
# generated using pymatgen
data_ID_88
_symmetry_space_group_name_H-M   I4_1md
_cell_length_a   10.48154960
_cell_length_b   10.48154960
_cell_length_c   7.51453364
_cell_angle_alpha   90.00000000
_cell_angle_beta   90.00000000
_cell_angle_gamma   90.00000000
_symmetry_Int_Tables_number   109
_chemical_formula_structural   Si
_cell_volume   825.56832235
_cell_formula_units_Z   32
loop_
 _symmetry_equiv_pos_site_id
 _symmetry_equiv_pos_as_xyz
  1  'x, y, z'
  2  '-y, x+1/2, z+1/4'
  3  '-x+1/2, -y+1/2, z+1/2'
  4  'y+1/2, -x, z+3/4'
  5  '-x, y, z'
  6  'y, x+1/2, z+1/4'
  7  'x+1/2, -y+1/2, z+1/2'
  8  '-y+1/2, -x, z+3/4'
  9  'x+1/2, y+1/2, z+1/2'
  10  '-y+1/2, x, z+3/4'
  11  '-x, -y, z'
  12  'y, -x+1/2, z+1/4'
  13  '-x+1/2, y+1/2, z+1/2'
  14  'y+1/2, x, z+3/4'
  15  'x, -y, z'
  16  '-y, -x+1/2, z+1/4'
loop_
 _atom_site_type_symbol
 _atom_site_label
 _atom_site_symmetry_multiplicity
 _atom_site_fract_x
 _atom_site_fract_y
 _atom_site_fract_z
 _atom_site_occupancy
  Si  Si0  16  0.18035790  0.26478949  0.81488660  1
  Si  Si1  8  0.00000000  0.19856485  0.51707667  1
  Si  Si2  4  0.00000000  0.00000000  0.42518893  1
  Si  Si3  4  0.00000000  0.00000000  0.72125012  1
# generated using pymatgen
data_ID_89
_symmetry_space_group_name_H-M   P4nc
_cell_length_a   5.19730136
_cell_length_b   5.19730136
_cell_length_c   9.30490174
_cell_angle_alpha   90.00000000
_cell_angle_beta   90.00000000
_cell_angle_gamma   90.00000000
_symmetry_Int_Tables_number   104
_chemical_formula_structural   Si
_cell_volume   251.34346058
_cell_formula_units_Z   16
loop_
 _symmetry_equiv_pos_site_id
 _symmetry_equiv_pos_as_xyz
  1  'x, y, z'
  2  '-y, x, z'
  3  '-x, -y, z'
  4  'y, -x, z'
  5  '-x+1/2, y+1/2, z+1/2'
  6  'y+1/2, x+1/2, z+1/2'
  7  'x+1/2, -y+1/2, z+1/2'
  8  '-y+1/2, -x+1/2, z+1/2'
loop_
 _atom_site_type_symbol
 _atom_site_label
 _atom_site_symmetry_multiplicity
 _atom_site_fract_x
 _atom_site_fract_y
 _atom_site_fract_z
 _atom_site_occupancy
  Si  Si0  8  0.04254042  0.59902870  0.07743671  1
  Si  Si1  4  0.00000000  0.50000000  0.37885123  1
  Si  Si2  2  0.00000000  0.00000000  0.48723263  1
  Si  Si3  2  0.00000000  0.00000000  0.73507205  1
# generated using pymatgen
data_ID_90
_symmetry_space_group_name_H-M   P23
_cell_length_a   7.58559324
_cell_length_b   7.58559324
_cell_length_c   7.58559324
_cell_angle_alpha   90.00000000
_cell_angle_beta   90.00000000
_cell_angle_gamma   90.00000000
_symmetry_Int_Tables_number   195
_chemical_formula_structural   Si
_cell_volume   436.48432607
_cell_formula_units_Z   16
loop_
 _symmetry_equiv_pos_site_id
 _symmetry_equiv_pos_as_xyz
  1  'x, y, z'
  2  '-x, -y, z'
  3  'x, -y, -z'
  4  '-x, y, -z'
  5  'z, x, y'
  6  'z, -x, -y'
  7  '-z, x, -y'
  8  '-z, -x, y'
  9  'y, z, x'
  10  '-y, z, -x'
  11  '-y, -z, x'
  12  'y, -z, -x'
loop_
 _atom_site_type_symbol
 _atom_site_label
 _atom_site_symmetry_multiplicity
 _atom_site_fract_x
 _atom_site_fract_y
 _atom_site_fract_z
 _atom_site_occupancy
  Si  Si0  12  0.11453096  0.35218152  0.20727064  1
  Si  Si1  4  0.06492532  0.06492532  0.06492532  1
# generated using pymatgen
data_ID_91
_symmetry_space_group_name_H-M   Pmma
_cell_length_a   9.85174788
_cell_length_b   9.56666598
_cell_length_c   6.82401576
_cell_angle_alpha   90.00000000
_cell_angle_beta   90.00000000
_cell_angle_gamma   90.00000000
_symmetry_Int_Tables_number   51
_chemical_formula_structural   Si
_cell_volume   643.15243853
_cell_formula_units_Z   16
loop_
 _symmetry_equiv_pos_site_id
 _symmetry_equiv_pos_as_xyz
  1  'x, y, z'
  2  '-x, -y, -z'
  3  '-x+1/2, -y, z'
  4  'x+1/2, y, -z'
  5  'x+1/2, -y, -z'
  6  '-x+1/2, y, z'
  7  '-x, y, -z'
  8  'x, -y, z'
loop_
 _atom_site_type_symbol
 _atom_site_label
 _atom_site_symmetry_multiplicity
 _atom_site_fract_x
 _atom_site_fract_y
 _atom_site_fract_z
 _atom_site_occupancy
  Si  Si0  8  0.08343007  0.11354987  0.45707468  1
  Si  Si1  4  0.00000000  0.35963961  0.00000000  1
  Si  Si2  4  0.03122463  0.00000000  0.13564366  1
# generated using pymatgen
data_ID_92
_symmetry_space_group_name_H-M   P4
_cell_length_a   7.68212082
_cell_length_b   7.68212082
_cell_length_c   9.98541767
_cell_angle_alpha   90.00000000
_cell_angle_beta   90.00000000
_cell_angle_gamma   90.00000000
_symmetry_Int_Tables_number   75
_chemical_formula_structural   Si
_cell_volume   589.28922794
_cell_formula_units_Z   16
loop_
 _symmetry_equiv_pos_site_id
 _symmetry_equiv_pos_as_xyz
  1  'x, y, z'
  2  '-y, x, z'
  3  '-x, -y, z'
  4  'y, -x, z'
loop_
 _atom_site_type_symbol
 _atom_site_label
 _atom_site_symmetry_multiplicity
 _atom_site_fract_x
 _atom_site_fract_y
 _atom_site_fract_z
 _atom_site_occupancy
  Si  Si0  4  0.08585830  0.84875572  0.77305897  1
  Si  Si1  4  0.15421300  0.16799087  0.03194892  1
  Si  Si2  4  0.25485850  0.44638800  0.38045607  1
  Si  Si3  2  0.00000000  0.50000000  0.36874640  1
  Si  Si4  1  0.00000000  0.00000000  0.42944818  1
  Si  Si5  1  0.00000000  0.00000000  0.58972520  1
# generated using pymatgen
data_ID_93
_symmetry_space_group_name_H-M   P4_2/ncm
_cell_length_a   7.81656851
_cell_length_b   7.81656851
_cell_length_c   10.65807773
_cell_angle_alpha   90.00000000
_cell_angle_beta   90.00000000
_cell_angle_gamma   90.00000000
_symmetry_Int_Tables_number   138
_chemical_formula_structural   Si
_cell_volume   651.19515522
_cell_formula_units_Z   16
loop_
 _symmetry_equiv_pos_site_id
 _symmetry_equiv_pos_as_xyz
  1  'x, y, z'
  2  '-y+1/2, x+1/2, z+1/2'
  3  '-x, -y, z'
  4  'y+1/2, -x+1/2, z+1/2'
  5  'x+1/2, -y+1/2, -z'
  6  '-y, -x, -z+1/2'
  7  '-x+1/2, y+1/2, -z'
  8  'y, x, -z+1/2'
  9  '-x+1/2, -y+1/2, -z+1/2'
  10  'y, -x, -z'
  11  'x+1/2, y+1/2, -z+1/2'
  12  '-y, x, -z'
  13  '-x, y, z+1/2'
  14  'y+1/2, x+1/2, z'
  15  'x, -y, z+1/2'
  16  '-y+1/2, -x+1/2, z'
loop_
 _atom_site_type_symbol
 _atom_site_label
 _atom_site_symmetry_multiplicity
 _atom_site_fract_x
 _atom_site_fract_y
 _atom_site_fract_z
 _atom_site_occupancy
  Si  Si0  16  0.15815721  0.22075188  0.07645112  1
# generated using pymatgen
data_ID_94
_symmetry_space_group_name_H-M   Pnma
_cell_length_a   8.53882060
_cell_length_b   7.64970433
_cell_length_c   5.13393485
_cell_angle_alpha   90.00000000
_cell_angle_beta   90.00000000
_cell_angle_gamma   90.00000000
_symmetry_Int_Tables_number   62
_chemical_formula_structural   Si
_cell_volume   335.34581561
_cell_formula_units_Z   16
loop_
 _symmetry_equiv_pos_site_id
 _symmetry_equiv_pos_as_xyz
  1  'x, y, z'
  2  '-x, -y, -z'
  3  '-x+1/2, -y, z+1/2'
  4  'x+1/2, y, -z+1/2'
  5  'x+1/2, -y+1/2, -z+1/2'
  6  '-x+1/2, y+1/2, z+1/2'
  7  '-x, y+1/2, -z'
  8  'x, -y+1/2, z'
loop_
 _atom_site_type_symbol
 _atom_site_label
 _atom_site_symmetry_multiplicity
 _atom_site_fract_x
 _atom_site_fract_y
 _atom_site_fract_z
 _atom_site_occupancy
  Si  Si0  8  0.04156741  0.11746218  0.99101178  1
  Si  Si1  8  0.13188702  0.51200642  0.38088742  1
# generated using pymatgen
data_ID_95
_symmetry_space_group_name_H-M   P6/m
_cell_length_a   7.87249196
_cell_length_b   7.87249196
_cell_length_c   10.24627290
_cell_angle_alpha   90.00000000
_cell_angle_beta   90.00000000
_cell_angle_gamma   120.00000000
_symmetry_Int_Tables_number   175
_chemical_formula_structural   Si
_cell_volume   549.94720811
_cell_formula_units_Z   16
loop_
 _symmetry_equiv_pos_site_id
 _symmetry_equiv_pos_as_xyz
  1  'x, y, z'
  2  '-x, -y, -z'
  3  'x-y, x, z'
  4  '-x+y, -x, -z'
  5  '-y, x-y, z'
  6  'y, -x+y, -z'
  7  '-x, -y, z'
  8  'x, y, -z'
  9  '-x+y, -x, z'
  10  'x-y, x, -z'
  11  'y, -x+y, z'
  12  '-y, x-y, -z'
loop_
 _atom_site_type_symbol
 _atom_site_label
 _atom_site_symmetry_multiplicity
 _atom_site_fract_x
 _atom_site_fract_y
 _atom_site_fract_z
 _atom_site_occupancy
  Si  Si0  12  0.07217445  0.45784854  0.06041800  1
  Si  Si1  4  0.33333333  0.66666667  0.83322227  1
# generated using pymatgen
data_ID_96
_symmetry_space_group_name_H-M   P3m1
_cell_length_a   4.99392077
_cell_length_b   4.99392077
_cell_length_c   28.38179663
_cell_angle_alpha   90.00000000
_cell_angle_beta   90.00000000
_cell_angle_gamma   120.00000000
_symmetry_Int_Tables_number   156
_chemical_formula_structural   Si
_cell_volume   612.99059381
_cell_formula_units_Z   16
loop_
 _symmetry_equiv_pos_site_id
 _symmetry_equiv_pos_as_xyz
  1  'x, y, z'
  2  '-y, x-y, z'
  3  '-x+y, -x, z'
  4  '-y, -x, z'
  5  '-x+y, y, z'
  6  'x, x-y, z'
loop_
 _atom_site_type_symbol
 _atom_site_label
 _atom_site_symmetry_multiplicity
 _atom_site_fract_x
 _atom_site_fract_y
 _atom_site_fract_z
 _atom_site_occupancy
  Si  Si0  6  0.03943620  0.37682959  0.64429341  1
  Si  Si1  3  0.13580470  0.56790235  0.20003814  1
  Si  Si2  3  0.25886138  0.12943069  0.52109597  1
  Si  Si3  1  0.00000000  0.00000000  0.83696640  1
  Si  Si4  1  0.00000000  0.00000000  0.98484089  1
  Si  Si5  1  0.33333333  0.66666667  0.52976538  1
  Si  Si6  1  0.66666667  0.33333333  0.49347788  1
# generated using pymatgen
data_ID_97
_symmetry_space_group_name_H-M   P4_2/nbc
_cell_length_a   7.74718103
_cell_length_b   7.74718103
_cell_length_c   6.00605713
_cell_angle_alpha   90.00000000
_cell_angle_beta   90.00000000
_cell_angle_gamma   90.00000000
_symmetry_Int_Tables_number   133
_chemical_formula_structural   Si
_cell_volume   360.47642484
_cell_formula_units_Z   16
loop_
 _symmetry_equiv_pos_site_id
 _symmetry_equiv_pos_as_xyz
  1  'x, y, z'
  2  '-y+1/2, x+1/2, z+1/2'
  3  '-x, -y, z'
  4  'y+1/2, -x+1/2, z+1/2'
  5  'x, -y, -z+1/2'
  6  '-y+1/2, -x+1/2, -z'
  7  '-x, y, -z+1/2'
  8  'y+1/2, x+1/2, -z'
  9  '-x+1/2, -y+1/2, -z+1/2'
  10  'y, -x, -z'
  11  'x+1/2, y+1/2, -z+1/2'
  12  '-y, x, -z'
  13  '-x+1/2, y+1/2, z'
  14  'y, x, z+1/2'
  15  'x+1/2, -y+1/2, z'
  16  '-y, -x, z+1/2'
loop_
 _atom_site_type_symbol
 _atom_site_label
 _atom_site_symmetry_multiplicity
 _atom_site_fract_x
 _atom_site_fract_y
 _atom_site_fract_z
 _atom_site_occupancy
  Si  Si0  16  0.00184101  0.20834793  0.52535382  1
# generated using pymatgen
data_ID_98
_symmetry_space_group_name_H-M   P622
_cell_length_a   8.71795904
_cell_length_b   8.71795904
_cell_length_c   3.32777411
_cell_angle_alpha   90.00000000
_cell_angle_beta   90.00000000
_cell_angle_gamma   120.00000000
_symmetry_Int_Tables_number   177
_chemical_formula_structural   Si
_cell_volume   219.03530305
_cell_formula_units_Z   16
loop_
 _symmetry_equiv_pos_site_id
 _symmetry_equiv_pos_as_xyz
  1  'x, y, z'
  2  'x-y, x, z'
  3  '-y, x-y, z'
  4  '-x, -y, z'
  5  '-x+y, -x, z'
  6  'y, -x+y, z'
  7  '-y, -x, -z'
  8  '-x, -x+y, -z'
  9  '-x+y, y, -z'
  10  'y, x, -z'
  11  'x, x-y, -z'
  12  'x-y, -y, -z'
loop_
 _atom_site_type_symbol
 _atom_site_label
 _atom_site_symmetry_multiplicity
 _atom_site_fract_x
 _atom_site_fract_y
 _atom_site_fract_z
 _atom_site_occupancy
  Si  Si0  12  0.08150865  0.31303502  0.77086362  1
  Si  Si1  2  0.33333333  0.66666667  0.00000000  1
  Si  Si2  1  0.00000000  0.00000000  0.00000000  1
  Si  Si3  1  0.00000000  0.00000000  0.50000000  1
# generated using pymatgen
data_ID_99
_symmetry_space_group_name_H-M   P4/n
_cell_length_a   8.63357342
_cell_length_b   8.63357342
_cell_length_c   5.93776040
_cell_angle_alpha   90.00000000
_cell_angle_beta   90.00000000
_cell_angle_gamma   90.00000000
_symmetry_Int_Tables_number   85
_chemical_formula_structural   Si
_cell_volume   442.59228868
_cell_formula_units_Z   16
loop_
 _symmetry_equiv_pos_site_id
 _symmetry_equiv_pos_as_xyz
  1  'x, y, z'
  2  '-y+1/2, x+1/2, z'
  3  '-x, -y, z'
  4  'y+1/2, -x+1/2, z'
  5  '-x+1/2, -y+1/2, -z'
  6  'y, -x, -z'
  7  'x+1/2, y+1/2, -z'
  8  '-y, x, -z'
loop_
 _atom_site_type_symbol
 _atom_site_label
 _atom_site_symmetry_multiplicity
 _atom_site_fract_x
 _atom_site_fract_y
 _atom_site_fract_z
 _atom_site_occupancy
  Si  Si0  8  0.02228791  0.66115864  0.79844086  1
  Si  Si1  8  0.07235397  0.64657664  0.37863283  1
